<?xml version="1.0" encoding="UTF-8"?>

<!-- generated on 2024-04-22 02:03:03.756758 by randomTrips.py v1_19_0+0000-baa66a0f364
<configuration>
    <net-file value="../sumo_project\osm.net.xml.gz"/>
    <additional-files value="../sumo_project\osm.poly.xml.gz"/>
    <output-trip-file value="../sumo_project\trips\osm.passenger_0.trips.xml"/>
    <route-file value="../sumo_project\trips\osm.passenger_0.rou.xml"/>
    <prefix value="passenger_0"/>
    <vehicle-class value="passenger"/>
    <min-distance value="10.0"/>
    <remove-loops value="True"/>
    <validate value="True"/>
    <end value="25200.0"/>
    <insertion-rate value="200.0"/>
</configuration>
-->

<!-- generated on 2024-04-22 02:03:03 by Eclipse SUMO duarouter Version 1.19.0
<configuration xmlns:xsi="http://www.w3.org/2001/XMLSchema-instance" xsi:noNamespaceSchemaLocation="http://sumo.dlr.de/xsd/duarouterConfiguration.xsd">

    <input>
        <net-file value="../sumo_project\osm.net.xml.gz"/>
        <additional-files value="../sumo_project\osm.poly.xml.gz"/>
        <route-files value="../sumo_project\trips\osm.passenger_0.trips.xml"/>
    </input>

    <output>
        <output-file value="../sumo_project\trips\osm.passenger_0.rou.xml"/>
        <alternatives-output value="NUL"/>
    </output>

    <processing>
        <remove-loops value="true"/>
    </processing>

    <time>
        <begin value="0.0"/>
        <end value="25200.0"/>
    </time>

    <report>
        <no-warnings value="true"/>
        <ignore-errors value="true"/>
        <no-step-log value="true"/>
    </report>

</configuration>
-->

<routes xmlns:xsi="http://www.w3.org/2001/XMLSchema-instance" xsi:noNamespaceSchemaLocation="http://sumo.dlr.de/xsd/routes_file.xsd">
    <vType id="passenger_0_passenger" vClass="passenger"/>
    <vehicle id="passenger_00" type="passenger_0_passenger" depart="0.00">
        <route edges="23714286#0 23714286#1 23714286#2 23714286#3 -23714284 187718053#0 187718053#1"/>
    </vehicle>
    <vehicle id="passenger_01" type="passenger_0_passenger" depart="18.00">
        <route edges="-27282358#11 -27282358#10 -27282358#9 -27282358#8 -188608390#5 -188608390#4 -188608390#3 -188608390#2 -188608390#1 -23786199#3 -23786199#2 -23786199#1 -23786199#0 942395523#0 189253789#0 -23714318#2 -23714318#1 -23714318#0 23714284 260136572#0 260136572#1 260136572#3 260136572#4 260136572#5"/>
    </vehicle>
    <vehicle id="passenger_02" type="passenger_0_passenger" depart="36.00">
        <route edges="260136572#5 213159005#2 213159005#4 213159005#5 213159005#6 517419312#4 517419312#0 517419312#1 517419312#2 -405494696#2 -405494696#0 -670297118 -584181253 584181257 23714295#2 23714295#3 23714295#4 23714319#0"/>
    </vehicle>
    <vehicle id="passenger_03" type="passenger_0_passenger" depart="54.00">
        <route edges="27282384#4 27282384#5 27282384#6 27282384#7 27282358#0 27282358#1 27282358#2 27282358#3 27282358#5 27282358#6 27282358#8 27282358#9 27282358#10 27282358#11 27282358#12 27282358#13 27282358#14 27282358#15 150480531#0 150480531#1 932432705 23714276#5 932432707 -23714277#4"/>
    </vehicle>
    <vehicle id="passenger_04" type="passenger_0_passenger" depart="72.00">
        <route edges="-987217843#0 -213159004#8 -213159004#6 -213159004#5 -213159004#4 -213159004#3 -213159004#1 -213159004#0 23714276#1 932432702 23714280#0 23714280#1 23714280#2 23714280#3 23714280#4 23714280#5 23714280#6 23714280#7 -27282359#8 -27282359#7 -27282359#6 -27282359#5 -1026432878 -1026432877#0 -187718053#2"/>
    </vehicle>
    <vehicle id="passenger_05" type="passenger_0_passenger" depart="90.00">
        <route edges="-260136572#3 -260136572#1 -260136572#0 -23714284 23714318#0 23714318#1 23714318#2 189253787#1 942395523#2 942395523#3 942395523#4 942395523#5 942395523#6 942395523#7 23786199#0 23786199#1 23786199#2 23786199#3 188608390#1 188608390#2 188608390#3 188608390#4"/>
    </vehicle>
    <vehicle id="passenger_06" type="passenger_0_passenger" depart="108.00">
        <route edges="-187718053#2 -187718053#1 -187718053#0 23714284 -23714286#3 -23714286#2 -23714286#1 -23714286#0 23786206#0 23786206#1"/>
    </vehicle>
    <vehicle id="passenger_07" type="passenger_0_passenger" depart="126.00">
        <route edges="-23714286#3 -23714286#2 -23714286#1 -23714286#0 -23714280#7 -23714280#6 -23714280#5 -23714280#4 -23714280#3 -23714280#2 -23714280#1 -23714280#0 932432703 23714276#3 23714276#4 23714276#5 23714276#6 23714276#0 213159004#0 213159004#1 213159004#3 213159004#4"/>
    </vehicle>
    <vehicle id="passenger_09" type="passenger_0_passenger" depart="162.00">
        <route edges="27282358#15 150480531#0 150480531#1 932432705 23714276#5 23714276#6 23714276#0 23714276#1 932432702 23714280#0 23714280#1 23714280#2 23714280#3 23714280#4 23714280#5 23714280#6 23714280#7 -27282359#8 -27282359#7 -27282359#6 -27282359#5 -1026432878"/>
    </vehicle>
    <vehicle id="passenger_010" type="passenger_0_passenger" depart="180.00">
        <route edges="-27282358#14 -27282358#13 -27282358#12 -27282358#11 -27282358#10 -27282358#9 -27282358#8 -188608390#5 -188608390#4 -188608390#3 -188608390#2 -188608390#1 -23786199#3"/>
    </vehicle>
    <vehicle id="passenger_011" type="passenger_0_passenger" depart="198.00">
        <route edges="-27282359#4 -27282359#3 -27282359#2 -27282359#1 -27282359#0 -23786199#3 -23786199#2 -23786199#1 -23786199#0 942395523#0 189253789#0 -23714318#2 -23714318#1 -23714318#0"/>
    </vehicle>
    <vehicle id="passenger_012" type="passenger_0_passenger" depart="216.00">
        <route edges="932432702 23714280#0 23714280#1 23714280#2 23714280#3 23714280#4 23714280#5 23714280#6 23714280#7 -27282359#8 -27282359#7 -27282359#6 -27282359#5 -27282359#4 -27282359#3"/>
    </vehicle>
    <vehicle id="passenger_013" type="passenger_0_passenger" depart="234.00">
        <route edges="-23714280#1"/>
    </vehicle>
    <vehicle id="passenger_014" type="passenger_0_passenger" depart="252.00">
        <route edges="27282359#2 27282359#3 27282359#4 27282359#5 27282359#6 27282359#7 27282359#8 -23714280#7 -23714280#6 -23714280#5 -23714280#4 -23714280#3 -23714280#2"/>
    </vehicle>
    <vehicle id="passenger_015" type="passenger_0_passenger" depart="270.00">
        <route edges="27282358#15 150480531#0 150480531#1 932432705 23714276#5 23714276#6 23714276#0 23714276#1 932432702 23714280#0 23714280#1 23714280#2 23714280#3 23714280#4 23714280#5 23714280#6 23714280#7 23714286#0 23714286#1 23714286#2 23714286#3 260136572#0 260136572#1 260136572#3 260136572#4"/>
    </vehicle>
    <vehicle id="passenger_016" type="passenger_0_passenger" depart="288.00">
        <route edges="213159004#3 213159004#4 213159004#5 213159004#6 213159004#7 987217843#0 -260136572#5 -260136572#4 -260136572#3 -260136572#1 -260136572#0 -23714286#3 -23714286#2 -23714286#1 -23714286#0 -23714280#7 -23714280#6 -23714280#5 -23714280#4 -23714280#3 -23714280#2 -23714280#1 -23714280#0 932432703 23714276#3 932432704 932432705"/>
    </vehicle>
    <vehicle id="passenger_017" type="passenger_0_passenger" depart="306.00">
        <route edges="-27282384#4 -27282384#3 -27282384#2 -27282384#1 -27282384#0 -27282352#7 -27282352#6 -27282352#5 -27282352#4 -27282352#3 -27282352#2 -27282352#1 -27282352#0 942395523#7 942395523#0 189253789#0 -23714318#2 -23714318#1 -23714318#0 23714284 -23714286#3 -23714286#2 -23714286#1 -23714286#0 -23714280#7 -23714280#6 -23714280#5 -23714280#4 -23714280#3 -23714280#2 -23714280#1 -23714280#0 932432703 23714276#3 23714276#4 23714276#5 23714276#6 23714276#0 213159004#0 213159004#1 213159004#3 213159004#4 213159004#5 213159004#6"/>
    </vehicle>
    <vehicle id="passenger_018" type="passenger_0_passenger" depart="324.00">
        <route edges="27282358#8 27282358#9 27282358#10 27282358#11 27282358#12 27282358#13 27282358#14 27282358#15 150480531#0 150480531#1 932432705 23714276#5 23714276#6 23714276#0 23714276#1 932432702 23714280#0 23714280#1 23714280#2 23714280#3 23714280#4 23714280#5 23714280#6"/>
    </vehicle>
    <vehicle id="passenger_020" type="passenger_0_passenger" depart="360.00">
        <route edges="-23786206#0 -27282359#8 -27282359#7 -27282359#6 -27282359#5 -27282359#4 -27282359#3 -27282359#2 -27282359#1 -27282359#0 188608390#1 188608390#2 188608390#3 188608390#4"/>
    </vehicle>
    <vehicle id="passenger_021" type="passenger_0_passenger" depart="378.00">
        <route edges="-27282352#0 942395523#7 23786199#0 23786199#1 23786199#2 23786199#3 27282359#0 27282359#1 27282359#2 27282359#3 27282359#4 187816766#0 187816766#1 187816766#2 187816766#3 187816766#4 187816766#5 187816766#6 -27282358#15 -27282358#14"/>
    </vehicle>
    <vehicle id="passenger_022" type="passenger_0_passenger" depart="396.00">
        <route edges="-213159004#8 -213159004#6 -213159004#5 -213159004#4 -213159004#3 -213159004#1 -213159004#0 23714276#1 23714276#2 23714276#3 932432704 -150480531#1 -150480531#0 -27282358#15 -27282358#14 -27282358#13 -27282358#12 -27282358#11 -27282358#10 -27282358#9 -27282358#8 -27282358#6 -27282358#5 -27282358#3 -27282358#2 -27282358#1 -27282358#0 -27282384#7 -27282384#6 -27282384#5 -27282384#4 -27282384#3 -27282384#2 -27282384#1 -27282384#0 -27282352#7 -27282352#6 -27282352#5 -27282352#4 -27282352#3 -27282352#2 -27282352#1"/>
    </vehicle>
    <vehicle id="passenger_023" type="passenger_0_passenger" depart="414.00">
        <route edges="-23714280#3 -23714280#2 -23714280#1 -23714280#0 932432703 23714276#3 932432704 -150480531#1 -150480531#0 -27282358#15 -27282358#14 -27282358#13 -27282358#12 -27282358#11"/>
    </vehicle>
    <vehicle id="passenger_024" type="passenger_0_passenger" depart="432.00">
        <route edges="23714286#0 23714286#1 23714286#2 23714286#3 -23714284 23714318#0 23714318#1 23714318#2 189253787#1 942395523#2 942395523#3 942395523#4 942395523#5 942395523#6 942395523#7 23786199#0 23786199#1 23786199#2 23786199#3 188608390#1 188608390#2 188608390#3 188608390#4 188608390#5 -27282358#6 -27282358#5 -27282358#3 -27282358#2 -27282358#1 -27282358#0 -27282384#7 -27282384#6 -27282384#5 -27282384#4 -27282384#3 -27282384#2 -27282384#1"/>
    </vehicle>
    <vehicle id="passenger_025" type="passenger_0_passenger" depart="450.00">
        <route edges="-27282384#2 -27282384#1 -27282384#0 -27282352#7 -27282352#6 -27282352#5 -27282352#4 -27282352#3 -27282352#2 -27282352#1 -27282352#0 942395523#7 942395523#0 189253789#0 -23714318#2 -23714318#1 -23714318#0 23714284 260136572#0"/>
    </vehicle>
    <vehicle id="passenger_026" type="passenger_0_passenger" depart="468.00">
        <route edges="-27282358#1 -27282358#0 -27282384#7 -27282384#6 -27282384#5 -27282384#4 -27282384#3 -27282384#2 -27282384#1 -27282384#0 -27282352#7 -27282352#6 -27282352#5 -27282352#4 -27282352#3 -27282352#2 -27282352#1 -27282352#0 942395523#7 942395523#0 942395523#1 942395523#2 932432700 -23792272 584181258 23714295#4 23714295#5 23714295#0 23714307 584181257"/>
    </vehicle>
    <vehicle id="passenger_027" type="passenger_0_passenger" depart="486.00">
        <route edges="-23714286#2 -23714286#1 -23714286#0 -23714280#7 -23714280#6 -23714280#5 -23714280#4 -23714280#3"/>
    </vehicle>
    <vehicle id="passenger_028" type="passenger_0_passenger" depart="504.00">
        <route edges="-23714319#1 -23714319#0 23714295#5 -23714286#5 -23714286#4 260136572#0 260136572#1 260136572#3"/>
    </vehicle>
    <vehicle id="passenger_029" type="passenger_0_passenger" depart="522.00">
        <route edges="-23714319#0 23714295#5 23714295#0 23714295#1 23714295#2 584181256 23792272 932432701 942395523#4 942395523#5 942395523#6 942395523#7 23786199#0 23786199#1 23786199#2 23786199#3 188608390#1 188608390#2 188608390#3 188608390#4 188608390#5 -27282358#6 -27282358#5 -27282358#3 -27282358#2 -27282358#1 -27282358#0 -27282384#7 -27282384#6 -27282384#5 -27282384#4"/>
    </vehicle>
    <vehicle id="passenger_031" type="passenger_0_passenger" depart="558.00">
        <route edges="213159005#2 213159005#4 213159005#5 213159005#6 517419312#4 517419312#0 517419312#1 517419312#2 -405494696#2 -405494696#0 -670297118 -584181253 584181257 23714295#2 584181256 23792272 932432701 942395523#4 942395523#5 942395523#6 942395523#7 23786199#0"/>
    </vehicle>
    <vehicle id="passenger_032" type="passenger_0_passenger" depart="576.00">
        <route edges="-27282359#1 -27282359#0 -23786199#3 -23786199#2 -23786199#1 -23786199#0 942395523#0 942395523#1 942395523#2 942395523#3 942395523#4 942395523#5 942395523#6 27282352#0 27282352#1 27282352#2 27282352#3 27282352#4 27282352#5 27282352#6 27282352#7 27282352#8"/>
    </vehicle>
    <vehicle id="passenger_033" type="passenger_0_passenger" depart="594.00">
        <route edges="-27282352#0 942395523#7 23786199#0 23786199#1 23786199#2 23786199#3 188608390#1"/>
    </vehicle>
    <vehicle id="passenger_034" type="passenger_0_passenger" depart="612.00">
        <route edges="-27282358#8 -27282358#6 -27282358#5 -27282358#3 -27282358#2 -27282358#1"/>
    </vehicle>
    <vehicle id="passenger_035" type="passenger_0_passenger" depart="630.00">
        <route edges="-260136572#1 -260136572#0 23714286#4 23714286#5 23714295#0 23714295#1 23714295#2 584181256 584181258"/>
    </vehicle>
    <vehicle id="passenger_036" type="passenger_0_passenger" depart="648.00">
        <route edges="27282384#1 27282384#2 27282384#3 27282384#4 27282384#5 27282384#6 27282384#7 27282358#0 27282358#1 27282358#2 27282358#3 27282358#5 27282358#6 27282358#8"/>
    </vehicle>
    <vehicle id="passenger_038" type="passenger_0_passenger" depart="684.00">
        <route edges="-405494696#2 -405494696#0 -670297118 -584181253 584181257 23714295#2 23714295#3 23714295#4 23714319#0 23714319#1 187718053#0 187718053#1 187718053#2"/>
    </vehicle>
    <vehicle id="passenger_039" type="passenger_0_passenger" depart="702.00">
        <route edges="-27282358#0 -27282384#7 -27282384#6 -27282384#5 -27282384#4 -27282384#3 -27282384#2 -27282384#1 -27282384#0 -27282352#7 -27282352#6 -27282352#5 -27282352#4"/>
    </vehicle>
    <vehicle id="passenger_040" type="passenger_0_passenger" depart="720.00">
        <route edges="213159005#4 213159005#5 213159005#6 517419312#4 517419312#0 517419312#1 517419312#2 -405494696#2 -405494696#0 -670297118 -584181253 584181257 23714295#2 584181256 23792272 932432701 942395523#4 942395523#5 942395523#6 942395523#7 23786199#0 23786199#1 23786199#2 23786199#3 188608390#1 188608390#2 188608390#3 188608390#4 188608390#5 -27282358#6 -27282358#5 -27282358#3 -27282358#2 -27282358#1 -27282358#0"/>
    </vehicle>
    <vehicle id="passenger_041" type="passenger_0_passenger" depart="738.00">
        <route edges="232805395#1 517419312#1 517419312#2 -405494696#2 -405494696#0 -670297118 -584181253 584181257 23714295#2 584181256 23792272 932432701 942395523#4 942395523#5 942395523#6 27282352#0 27282352#1 27282352#2 27282352#3 27282352#4 27282352#5 27282352#6 27282352#7 27282352#8 27282384#1 27282384#2 27282384#3 27282384#4 27282384#5 27282384#6"/>
    </vehicle>
    <vehicle id="passenger_042" type="passenger_0_passenger" depart="756.00">
        <route edges="-405494696#0 -670297118 -584181253 584181257 23714295#2 23714295#3 23714295#4 23714295#5 -23714286#5 -23714286#4 260136572#0 260136572#1 260136572#3 260136572#4"/>
    </vehicle>
    <vehicle id="passenger_043" type="passenger_0_passenger" depart="774.00">
        <route edges="992341627#3 942395523#6 942395523#7 23786199#0 23786199#1 23786199#2 23786199#3 188608390#1 188608390#2 188608390#3 188608390#4 188608390#5"/>
    </vehicle>
    <vehicle id="passenger_044" type="passenger_0_passenger" depart="792.00">
        <route edges="-23714280#1 -23714280#0 932432703 23714276#3 932432704 -150480531#1 -150480531#0 -27282358#15 -27282358#14 -27282358#13 -27282358#12 -27282358#11 -27282358#10 -27282358#9 -27282358#8 -188608390#5 -188608390#4"/>
    </vehicle>
    <vehicle id="passenger_045" type="passenger_0_passenger" depart="810.00">
        <route edges="23714280#5 23714280#6 23714280#7 23714286#0 23714286#1 23714286#2 23714286#3 -23714284"/>
    </vehicle>
    <vehicle id="passenger_046" type="passenger_0_passenger" depart="828.00">
        <route edges="27282358#11 27282358#12 27282358#13 27282358#14 27282358#15 150480531#0 150480531#1 932432705 23714276#5 23714276#6 23714276#0 23714276#1 932432702 23714280#0 23714280#1 23714280#2 23714280#3 23714280#4 23714280#5 23714280#6 23714280#7 23714286#0 23714286#1 23714286#2 23714286#3 23714286#4 23714286#5 23714295#0 23714307 584181253 670297118"/>
    </vehicle>
    <vehicle id="passenger_047" type="passenger_0_passenger" depart="846.00">
        <route edges="-213159004#3 -213159004#1 -213159004#0 23714276#1 23714276#2 23714276#3 932432704 -150480531#1 -150480531#0 -27282358#15 -27282358#14 -27282358#13 -27282358#12 -27282358#11 -27282358#10 -27282358#9 -27282358#8 -27282358#6 -27282358#5 -27282358#3 -27282358#2 -27282358#1 -27282358#0 -27282384#7 -27282384#6 -27282384#5 -27282384#4"/>
    </vehicle>
    <vehicle id="passenger_048" type="passenger_0_passenger" depart="864.00">
        <route edges="992341627#3 942395523#6 942395523#7 942395523#0 189253789#0 -23714318#2 -23714318#1 -23714318#0 23714284 -23714286#3 -23714286#2 -23714286#1 -23714286#0 -23714280#7 -23714280#6 -23714280#5 -23714280#4 -23714280#3 -23714280#2 -23714280#1 -23714280#0 932432703 23714276#3 23714276#4 23714276#5 23714276#6 23714276#0 213159004#0"/>
    </vehicle>
    <vehicle id="passenger_049" type="passenger_0_passenger" depart="882.00">
        <route edges="932432705 23714276#5 23714276#6 23714276#0 23714276#1 932432702 23714280#0 23714280#1 23714280#2 23714280#3 23714280#4 23714280#5 23714280#6 23714280#7 -27282359#8 -27282359#7 -27282359#6 -27282359#5"/>
    </vehicle>
    <vehicle id="passenger_050" type="passenger_0_passenger" depart="900.00">
        <route edges="150480531#0 150480531#1 932432705 23714276#5 23714276#6 23714276#0 23714276#1 932432702 23714280#0 23714280#1 23714280#2 23714280#3 23714280#4 23714280#5 23714280#6 23714280#7 23714286#0 23714286#1 23714286#2 23714286#3 260136572#0"/>
    </vehicle>
    <vehicle id="passenger_051" type="passenger_0_passenger" depart="918.00">
        <route edges="23714319#0 23714319#1 23714284 -23714286#3 -23714286#2 -23714286#1 -23714286#0 -23714280#7 -23714280#6 -23714280#5 -23714280#4 -23714280#3 -23714280#2 -23714280#1 -23714280#0 932432703 23714276#3 23714276#4 23714276#5 23714276#6 23714276#0 213159004#0 213159004#1 213159004#3"/>
    </vehicle>
    <vehicle id="passenger_052" type="passenger_0_passenger" depart="936.00">
        <route edges="-27282358#1 -27282358#0 -27282384#7 -27282384#6 -27282384#5 -27282384#4 -27282384#3 -27282384#2 -27282384#1 -27282384#0 -27282352#7 -27282352#6 -27282352#5 -27282352#4 -27282352#3 -27282352#2 -27282352#1 -27282352#0 942395523#7 23786199#0 23786199#1 23786199#2 23786199#3 27282359#0 27282359#1 27282359#2 27282359#3 27282359#4 27282359#5 27282359#6 27282359#7 27282359#8 23714286#0 23714286#1 23714286#2"/>
    </vehicle>
    <vehicle id="passenger_053" type="passenger_0_passenger" depart="954.00">
        <route edges="23714280#5 23714280#6 23714280#7 23714286#0 23714286#1 23714286#2 23714286#3 -23714284 187718053#0 187718053#1 187718053#2 1026432877#0 1026432877#1"/>
    </vehicle>
    <vehicle id="passenger_054" type="passenger_0_passenger" depart="972.00">
        <route edges="187718053#2 1026432877#0 1026432877#1 -27282359#4 -27282359#3 -27282359#2 -27282359#1 -27282359#0 -23786199#3 -23786199#2 -23786199#1 -23786199#0 942395523#0 942395523#1 942395523#2 932432700 932432701"/>
    </vehicle>
    <vehicle id="passenger_055" type="passenger_0_passenger" depart="990.00">
        <route edges="27282384#1 27282384#2 27282384#3 27282384#4 27282384#5 27282384#6 27282384#7 27282358#0"/>
    </vehicle>
    <vehicle id="passenger_056" type="passenger_0_passenger" depart="1008.00">
        <route edges="-188608390#4 -188608390#3 -188608390#2 -188608390#1 -23786199#3 -23786199#2 -23786199#1 -23786199#0"/>
    </vehicle>
    <vehicle id="passenger_057" type="passenger_0_passenger" depart="1026.00">
        <route edges="-405494696#0 -670297118 -584181253 584181257 23714295#2 23714295#3 23714295#4 23714319#0 23714319#1 187718053#0 187718053#1 187718053#2 1026432877#0 1026432877#1 27282359#5 27282359#6 27282359#7"/>
    </vehicle>
    <vehicle id="passenger_058" type="passenger_0_passenger" depart="1044.00">
        <route edges="-27282358#2 -27282358#1 -27282358#0 -27282384#7 -27282384#6 -27282384#5 -27282384#4 -27282384#3 -27282384#2 -27282384#1 -27282384#0 -27282352#7 -27282352#6 -27282352#5 -27282352#4 -27282352#3 -27282352#2 -27282352#1 -27282352#0 942395523#7 23786199#0 23786199#1 23786199#2 23786199#3 27282359#0 27282359#1 27282359#2 27282359#3 27282359#4 27282359#5 27282359#6 27282359#7 27282359#8 23714286#0 23714286#1"/>
    </vehicle>
    <vehicle id="passenger_059" type="passenger_0_passenger" depart="1062.00">
        <route edges="23714280#2 23714280#3 23714280#4 23714280#5 23714280#6 23714280#7 23714286#0 23714286#1 23714286#2 23714286#3 -23714284 -23714319#1 -23714319#0 23714295#5 -23714286#5"/>
    </vehicle>
    <vehicle id="passenger_060" type="passenger_0_passenger" depart="1080.00">
        <route edges="27282352#5 27282352#6 27282352#7 27282352#8 27282384#1 27282384#2 27282384#3 27282384#4 27282384#5 27282384#6 27282384#7 27282358#0 27282358#1 27282358#2 27282358#3 27282358#5 27282358#6 27282358#8 27282358#9 27282358#10 27282358#11 27282358#12 27282358#13 27282358#14 27282358#15 150480531#0 150480531#1 932432705 23714276#5 23714276#6 23714276#0 213159004#0 213159004#1 213159004#3"/>
    </vehicle>
    <vehicle id="passenger_061" type="passenger_0_passenger" depart="1098.00">
        <route edges="27282358#0 27282358#1 27282358#2 27282358#3 27282358#5 27282358#6 27282358#8 27282358#9 27282358#10 27282358#11 27282358#12 27282358#13 27282358#14 27282358#15 150480531#0 150480531#1 932432705 23714276#5 23714276#6 23714276#0 213159004#0"/>
    </vehicle>
    <vehicle id="passenger_062" type="passenger_0_passenger" depart="1116.00">
        <route edges="1026432877#0 1026432877#1 -27282359#4 -27282359#3 -27282359#2 -27282359#1 -27282359#0"/>
    </vehicle>
    <vehicle id="passenger_063" type="passenger_0_passenger" depart="1134.00">
        <route edges="-187718053#0 -23714319#1 -23714319#0 23714295#5 23714295#0 23714307 584181253"/>
    </vehicle>
    <vehicle id="passenger_064" type="passenger_0_passenger" depart="1152.00">
        <route edges="27282384#1 27282384#2 27282384#3 27282384#4 27282384#5 27282384#6 27282384#7 27282358#0 27282358#1 27282358#2 27282358#3 27282358#5 27282358#6 27282358#8"/>
    </vehicle>
    <vehicle id="passenger_065" type="passenger_0_passenger" depart="1170.00">
        <route edges="-27282358#5 -27282358#3 -27282358#2 -27282358#1 -27282358#0 -27282384#7 -27282384#6 -27282384#5 -27282384#4 -27282384#3 -27282384#2 -27282384#1 -27282384#0 -27282352#7 -27282352#6 -27282352#5 -27282352#4 -27282352#3 -27282352#2 -27282352#1 -27282352#0 942395523#7 942395523#0 189253789#0 -23714318#2 -23714318#1 -23714318#0 23714284 260136572#0 260136572#1 260136572#3 260136572#4 260136572#5 -987217843#0 -213159004#8 -213159004#6 -213159004#5 -213159004#4 -213159004#3 -213159004#1"/>
    </vehicle>
    <vehicle id="passenger_066" type="passenger_0_passenger" depart="1188.00">
        <route edges="27282384#1 27282384#2 27282384#3 27282384#4 27282384#5 27282384#6 27282384#7 27282358#0 27282358#1 27282358#2 27282358#3 27282358#5 27282358#6 -188608390#5 -188608390#4 -188608390#3 -188608390#2 -188608390#1 -23786199#3 -23786199#2 -23786199#1 -23786199#0 942395523#0 942395523#1 942395523#2 932432700 -23792272 584181258 23714295#4 23714295#5 23714295#0 23714307 584181253 670297118"/>
    </vehicle>
    <vehicle id="passenger_068" type="passenger_0_passenger" depart="1224.00">
        <route edges="-213159004#5 -213159004#4 -213159004#3 -213159004#1 -213159004#0 23714276#1 932432702 23714280#0 23714280#1 23714280#2 23714280#3 23714280#4 23714280#5 23714280#6 23714280#7 23714286#0 23714286#1 23714286#2 23714286#3 -23714284 23714318#0 23714318#1 23714318#2 189253787#1 942395523#2 942395523#3 942395523#4 942395523#5 942395523#6 27282352#0 27282352#1 27282352#2 27282352#3 27282352#4 27282352#5"/>
    </vehicle>
    <vehicle id="passenger_069" type="passenger_0_passenger" depart="1242.00">
        <route edges="27282352#6 27282352#7 27282352#8 27282384#1 27282384#2 27282384#3 27282384#4 27282384#5 27282384#6 27282384#7 27282358#0 27282358#1 27282358#2 27282358#3 27282358#5 27282358#6 -188608390#5 -188608390#4 -188608390#3 -188608390#2 -188608390#1 -23786199#3 -23786199#2 -23786199#1 -23786199#0 942395523#0 189253789#0 -23714318#2 -23714318#1 -23714318#0 23714284"/>
    </vehicle>
    <vehicle id="passenger_070" type="passenger_0_passenger" depart="1260.00">
        <route edges="187816766#4 187816766#5 187816766#6 150480531#0 150480531#1 932432705 23714276#5 23714276#6 23714276#0 213159004#0 213159004#1 213159004#3 213159004#4 213159004#5 213159004#6"/>
    </vehicle>
    <vehicle id="passenger_071" type="passenger_0_passenger" depart="1278.00">
        <route edges="-27282358#0 -27282384#7 -27282384#6 -27282384#5 -27282384#4 -27282384#3 -27282384#2 -27282384#1 -27282384#0 -27282352#7 -27282352#6 -27282352#5 -27282352#4 -27282352#3 -27282352#2 -27282352#1 -27282352#0 942395523#7 23786199#0 23786199#1 23786199#2 23786199#3 27282359#0 27282359#1 27282359#2 27282359#3 27282359#4 27282359#5 27282359#6 27282359#7 27282359#8"/>
    </vehicle>
    <vehicle id="passenger_072" type="passenger_0_passenger" depart="1296.00">
        <route edges="260136572#5 -260136572#5 -260136572#4 -260136572#3 -260136572#1"/>
    </vehicle>
    <vehicle id="passenger_073" type="passenger_0_passenger" depart="1314.00">
        <route edges="213159004#4 213159004#5 213159004#6 213159004#7 987217843#0 -260136572#5 -260136572#4"/>
    </vehicle>
    <vehicle id="passenger_074" type="passenger_0_passenger" depart="1332.00">
        <route edges="-23786206#2 -23786206#1 -23786206#0 -27282359#8 -27282359#7 -27282359#6 -27282359#5 -27282359#4 -27282359#3 -27282359#2 -27282359#1 -27282359#0 188608390#1 188608390#2 188608390#3 188608390#4 188608390#5 -27282358#6"/>
    </vehicle>
    <vehicle id="passenger_075" type="passenger_0_passenger" depart="1350.00">
        <route edges="992341627#2 992341627#3 942395523#6 942395523#7 942395523#0 189253789#0 -23714318#2 -23714318#1 -23714318#0 23714284 23714286#4"/>
    </vehicle>
    <vehicle id="passenger_076" type="passenger_0_passenger" depart="1368.00">
        <route edges="150480531#1 932432705 23714276#5 23714276#6 23714276#0 23714276#1 932432702 23714280#0 23714280#1 23714280#2 23714280#3 23714280#4 23714280#5 23714280#6 23714280#7 -27282359#8 -27282359#7 -27282359#6 -27282359#5 -27282359#4 -27282359#3 -27282359#2 -27282359#1 -27282359#0 -23786199#3 -23786199#2 -23786199#1 -23786199#0 942395523#0 189253789#0"/>
    </vehicle>
    <vehicle id="passenger_077" type="passenger_0_passenger" depart="1386.00">
        <route edges="23714284 260136572#0 260136572#1 260136572#3 260136572#4 260136572#5"/>
    </vehicle>
    <vehicle id="passenger_079" type="passenger_0_passenger" depart="1422.00">
        <route edges="-27282352#0 942395523#7 942395523#0 189253789#0 -23714318#2 -23714318#1 -23714318#0 23714284 260136572#0 260136572#1 260136572#3 260136572#4"/>
    </vehicle>
    <vehicle id="passenger_080" type="passenger_0_passenger" depart="1440.00">
        <route edges="-213159004#5 -213159004#4 -213159004#3 -213159004#1 -213159004#0 23714276#1 932432702 23714280#0 23714280#1 23714280#2 23714280#3 23714280#4 23714280#5 23714280#6 23714280#7 23714286#0"/>
    </vehicle>
    <vehicle id="passenger_081" type="passenger_0_passenger" depart="1458.00">
        <route edges="27282352#0 27282352#1 27282352#2 27282352#3 27282352#4 27282352#5 27282352#6 27282352#7 27282352#8 27282384#1 27282384#2 27282384#3 27282384#4 27282384#5 27282384#6 27282384#7"/>
    </vehicle>
    <vehicle id="passenger_082" type="passenger_0_passenger" depart="1476.00">
        <route edges="27282359#5 27282359#6 27282359#7 27282359#8 23714286#0 23714286#1 23714286#2 23714286#3 260136572#0 260136572#1 260136572#3 260136572#4 260136572#5 -987217843#0 -213159004#8 -213159004#6 -213159004#5"/>
    </vehicle>
    <vehicle id="passenger_083" type="passenger_0_passenger" depart="1494.00">
        <route edges="-27282352#2 -27282352#1 -27282352#0 942395523#7 942395523#0 189253789#0 -23714318#2 -23714318#1"/>
    </vehicle>
    <vehicle id="passenger_084" type="passenger_0_passenger" depart="1512.00">
        <route edges="-260136572#1 -260136572#0 -23714286#3 -23714286#2 -23714286#1 -23714286#0"/>
    </vehicle>
    <vehicle id="passenger_085" type="passenger_0_passenger" depart="1530.00">
        <route edges="584181256 584181258 23714295#4 23714295#5 -23714286#5 -23714286#4 260136572#0 260136572#1 260136572#3 260136572#4 260136572#5 213159005#2 213159005#4 213159005#5 213159005#6"/>
    </vehicle>
    <vehicle id="passenger_086" type="passenger_0_passenger" depart="1548.00">
        <route edges="187816766#4 187816766#5 187816766#6 -27282358#15 -27282358#14 -27282358#13 -27282358#12 -27282358#11 -27282358#10 -27282358#9 -27282358#8 -188608390#5 -188608390#4 -188608390#3 -188608390#2 -188608390#1 -23786199#3 -23786199#2 -23786199#1 -23786199#0 942395523#0 942395523#1 942395523#2 942395523#3 942395523#4 942395523#5 942395523#6 27282352#0 27282352#1 27282352#2 27282352#3 27282352#4 27282352#5 27282352#6 27282352#7 27282352#8 27282384#1 27282384#2 27282384#3 27282384#4 27282384#5 27282384#6 27282384#7 27282358#0 27282358#1"/>
    </vehicle>
    <vehicle id="passenger_087" type="passenger_0_passenger" depart="1566.00">
        <route edges="-27282358#15 -27282358#14 -27282358#13 -27282358#12 -27282358#11 -27282358#10 -27282358#9 -27282358#8 -188608390#5 -188608390#4 -188608390#3 -188608390#2 -188608390#1 -23786199#3"/>
    </vehicle>