<?xml version="1.0" encoding="UTF-8"?>

<!-- generated on 2024-04-22 01:07:25.122853 by randomTrips.py v1_19_0+0000-baa66a0f364
<configuration>
    <net-file value="../sumo_project\osm.net.xml.gz"/>
    <additional-files value="../sumo_project\bus_stops_common_only.add.xml"/>
    <output-trip-file value="../sumo_project\trips\osm.bus_riders.trips.xml"/>
    <route-file value="../sumo_project\trips\osm.bus_riders.rou.xml"/>
    <personrides value="312 213"/>
    <from-stops value="busStop"/>
    <to-stops value="busStop"/>
    <prefix value="bus_rider_4"/>
    <vehicle-class value="pedestrian"/>
    <validate value="True"/>
    <end value="86400.0"/>
    <insertion-rate value="200.0"/>
</configuration>
-->

<!-- generated on 2024-04-22 01:07:24 by Eclipse SUMO duarouter Version 1.19.0
<configuration xmlns:xsi="http://www.w3.org/2001/XMLSchema-instance" xsi:noNamespaceSchemaLocation="http://sumo.dlr.de/xsd/duarouterConfiguration.xsd">

    <input>
        <net-file value="../sumo_project\osm.net.xml.gz"/>
        <additional-files value="../sumo_project\bus_stops_common_only.add.xml"/>
        <route-files value="../sumo_project\trips\osm.bus_riders.trips.xml"/>
    </input>

    <output>
        <output-file value="../sumo_project\trips\osm.bus_riders.rou.xml"/>
        <alternatives-output value="NUL"/>
    </output>

    <time>
        <begin value="0.0"/>
        <end value="86400.0"/>
    </time>

    <report>
        <no-warnings value="true"/>
        <ignore-errors value="true"/>
        <no-step-log value="true"/>
    </report>

</configuration>
-->

<routes xmlns:xsi="http://www.w3.org/2001/XMLSchema-instance" xsi:noNamespaceSchemaLocation="http://sumo.dlr.de/xsd/routes_file.xsd">
    <vType id="bus_rider_4_pedestrian" vClass="pedestrian"/>
    <person id="bus_rider_40" type="bus_rider_4_pedestrian" depart="0.00">
        <stop busStop="bs_4" duration="0.00"/>
        <ride to="-23714280#5" busStop="bs_7" lines="312 213"/> <!-- Bibliotheque -->
    </person>
    <person id="bus_rider_41" type="bus_rider_4_pedestrian" depart="18.00">
        <stop busStop="bs_15" duration="0.00"/>
        <ride to="27282352#6" busStop="bs_16" lines="312 213"/> <!-- Espace Descartes -->
    </person>
    <person id="bus_rider_42" type="bus_rider_4_pedestrian" depart="36.00">
        <stop busStop="bs_7" duration="0.00"/>
        <ride to="-23786199#2" busStop="bs_5" lines="312 213"/> <!-- Freres Lumiere - Ifu -->
    </person>
    <person id="bus_rider_43" type="bus_rider_4_pedestrian" depart="54.00">
        <stop busStop="bs_10" duration="0.00"/>
        <ride to="27282352#6" busStop="bs_16" lines="312 213"/> <!-- Espace Descartes -->
    </person>
    <person id="bus_rider_44" type="bus_rider_4_pedestrian" depart="72.00">
        <stop busStop="bs_17" duration="0.00"/>
        <ride to="-27282358#0" busStop="bs_14" lines="312 213"/> <!-- Einstein - Galilee -->
    </person>
    <person id="bus_rider_45" type="bus_rider_4_pedestrian" depart="90.00">
        <stop busStop="bs_16" duration="0.00"/>
        <ride to="-27282358#12" busStop="bs_13" lines="312 213"/> <!-- Bois de lEtang - Universite -->
    </person>
    <person id="bus_rider_46" type="bus_rider_4_pedestrian" depart="108.00">
        <stop busStop="bs_1" duration="0.00"/>
        <ride to="-27282358#12" busStop="bs_13" lines="312 213"/> <!-- Bois de lEtang - Universite -->
    </person>
    <person id="bus_rider_47" type="bus_rider_4_pedestrian" depart="126.00">
        <stop busStop="bs_5" duration="0.00"/>
        <ride to="27282358#2" busStop="bs_12" lines="312 213"/> <!-- Einstein - Galilee -->
    </person>
    <person id="bus_rider_48" type="bus_rider_4_pedestrian" depart="144.00">
        <stop busStop="bs_16" duration="0.00"/>
        <ride to="23714277#4" busStop="bs_10" lines="312 213"/> <!-- Galilee - Pascal -->
    </person>
    <person id="bus_rider_49" type="bus_rider_4_pedestrian" depart="162.00">
        <stop busStop="bs_10" duration="0.00"/>
        <ride to="27282358#2" busStop="bs_12" lines="312 213"/> <!-- Einstein - Galilee -->
    </person>
    <person id="bus_rider_410" type="bus_rider_4_pedestrian" depart="180.00">
        <stop busStop="bs_16" duration="0.00"/>
        <ride to="-23714280#5" busStop="bs_7" lines="312 213"/> <!-- Bibliotheque -->
    </person>
    <person id="bus_rider_411" type="bus_rider_4_pedestrian" depart="198.00">
        <stop busStop="bs_1" duration="0.00"/>
        <ride to="27282358#2" busStop="bs_12" lines="312 213"/> <!-- Einstein - Galilee -->
    </person>
    <person id="bus_rider_412" type="bus_rider_4_pedestrian" depart="216.00">
        <stop busStop="bs_14" duration="0.00"/>
        <ride to="23792272" busStop="bs_4" lines="312 213"/> <!-- Nobel -->
    </person>
    <person id="bus_rider_413" type="bus_rider_4_pedestrian" depart="234.00">
        <stop busStop="bs_13" duration="0.00"/>
        <ride to="-27282352#7" busStop="bs_15" lines="312 213"/> <!-- Espace Descartes -->
    </person>
    <person id="bus_rider_414" type="bus_rider_4_pedestrian" depart="252.00">
        <stop busStop="bs_8" duration="0.00"/>
        <ride to="-23792272" busStop="bs_3" lines="312 213"/> <!-- Nobel -->
    </person>
    <person id="bus_rider_415" type="bus_rider_4_pedestrian" depart="270.00">
        <stop busStop="bs_17" duration="0.00"/>
        <ride to="-27282358#0" busStop="bs_14" lines="312 213"/> <!-- Einstein - Galilee -->
    </person>
    <person id="bus_rider_416" type="bus_rider_4_pedestrian" depart="288.00">
        <stop busStop="bs_12" duration="0.00"/>
        <ride to="27282358#13" busStop="bs_11" lines="312 213"/> <!-- Bois de lEtang - Universite -->
    </person>
    <person id="bus_rider_417" type="bus_rider_4_pedestrian" depart="306.00">
        <stop busStop="bs_11" duration="0.00"/>
        <ride to="-670297118" busStop="bs_2" lines="312 213"/> <!-- Crous -->
    </person>
    <person id="bus_rider_418" type="bus_rider_4_pedestrian" depart="324.00">
        <stop busStop="bs_6" duration="0.00"/>
        <ride to="23714280#5" busStop="bs_8" lines="312 213"/> <!-- Bibliotheque -->
    </person>
    <person id="bus_rider_419" type="bus_rider_4_pedestrian" depart="342.00">
        <stop busStop="bs_4" duration="0.00"/>
        <ride to="-670297118" busStop="bs_2" lines="312 213"/> <!-- Crous -->
    </person>
    <person id="bus_rider_420" type="bus_rider_4_pedestrian" depart="360.00">
        <stop busStop="bs_14" duration="0.00"/>
        <ride to="-27282352#7" busStop="bs_15" lines="312 213"/> <!-- Espace Descartes -->
    </person>
    <person id="bus_rider_421" type="bus_rider_4_pedestrian" depart="378.00">
        <stop busStop="bs_6" duration="0.00"/>
        <ride to="-670297118" busStop="bs_2" lines="312 213"/> <!-- Crous -->
    </person>
    <person id="bus_rider_422" type="bus_rider_4_pedestrian" depart="396.00">
        <stop busStop="bs_10" duration="0.00"/>
        <ride to="-23786199#2" busStop="bs_5" lines="312 213"/> <!-- Freres Lumiere - Ifu -->
    </person>
    <person id="bus_rider_423" type="bus_rider_4_pedestrian" depart="414.00">
        <stop busStop="bs_3" duration="0.00"/>
        <ride to="-23792272" busStop="bs_3" lines="312 213"/> <!-- Nobel -->
    </person>
    <person id="bus_rider_424" type="bus_rider_4_pedestrian" depart="432.00">
        <stop busStop="bs_2" duration="0.00"/>
        <ride to="23714280#5" busStop="bs_8" lines="312 213"/> <!-- Bibliotheque -->
    </person>
    <person id="bus_rider_425" type="bus_rider_4_pedestrian" depart="450.00">
        <stop busStop="bs_1" duration="0.00"/>
        <ride to="27282358#2" busStop="bs_12" lines="312 213"/> <!-- Einstein - Galilee -->
    </person>
    <person id="bus_rider_426" type="bus_rider_4_pedestrian" depart="468.00">
        <stop busStop="bs_4" duration="0.00"/>
        <ride to="23714277#4" busStop="bs_10" lines="312 213"/> <!-- Galilee - Pascal -->
    </person>
    <person id="bus_rider_427" type="bus_rider_4_pedestrian" depart="486.00">
        <stop busStop="bs_5" duration="0.00"/>
        <ride to="-670297118" busStop="bs_2" lines="312 213"/> <!-- Crous -->
    </person>
    <person id="bus_rider_428" type="bus_rider_4_pedestrian" depart="504.00">
        <stop busStop="bs_1" duration="0.00"/>
        <ride to="27282359#1" busStop="bs_6" lines="312 213"/> <!-- freres lumiere - Ipu -->
    </person>
    <person id="bus_rider_429" type="bus_rider_4_pedestrian" depart="522.00">
        <stop busStop="bs_10" duration="0.00"/>
        <ride to="-23786199#2" busStop="bs_5" lines="312 213"/> <!-- Freres Lumiere - Ifu -->
    </person>
    <person id="bus_rider_430" type="bus_rider_4_pedestrian" depart="540.00">
        <stop busStop="bs_3" duration="0.00"/>
        <ride to="27282358#13" busStop="bs_11" lines="312 213"/> <!-- Bois de lEtang - Universite -->
    </person>
    <person id="bus_rider_431" type="bus_rider_4_pedestrian" depart="558.00">
        <stop busStop="bs_17" duration="0.00"/>
        <ride to="-23786199#2" busStop="bs_5" lines="312 213"/> <!-- Freres Lumiere - Ifu -->
    </person>
    <person id="bus_rider_432" type="bus_rider_4_pedestrian" depart="576.00">
        <stop busStop="bs_15" duration="0.00"/>
        <ride to="-27282352#7" busStop="bs_15" lines="312 213"/> <!-- Espace Descartes -->
    </person>
    <person id="bus_rider_433" type="bus_rider_4_pedestrian" depart="594.00">
        <stop busStop="bs_16" duration="0.00"/>
        <ride to="27282358#2" busStop="bs_12" lines="312 213"/> <!-- Einstein - Galilee -->
    </person>
    <person id="bus_rider_434" type="bus_rider_4_pedestrian" depart="612.00">
        <stop busStop="bs_4" duration="0.00"/>
        <ride to="405494696#0" busStop="bs_1" lines="312 213"/> <!-- Crous -->
    </person>
    <person id="bus_rider_435" type="bus_rider_4_pedestrian" depart="630.00">
        <stop busStop="bs_10" duration="0.00"/>
        <ride to="23714280#5" busStop="bs_8" lines="312 213"/> <!-- Bibliotheque -->
    </person>
    <person id="bus_rider_436" type="bus_rider_4_pedestrian" depart="648.00">
        <stop busStop="bs_16" duration="0.00"/>
        <ride to="-670297118" busStop="bs_2" lines="312 213"/> <!-- Crous -->
    </person>
    <person id="bus_rider_437" type="bus_rider_4_pedestrian" depart="666.00">
        <stop busStop="bs_6" duration="0.00"/>
        <ride to="1091733345" busStop="bs_17" lines="312 213"/> <!-- Noisy Champs - RER - Descartes -->
    </person>
    <person id="bus_rider_438" type="bus_rider_4_pedestrian" depart="684.00">
        <stop busStop="bs_5" duration="0.00"/>
        <ride to="-23714280#5" busStop="bs_7" lines="312 213"/> <!-- Bibliotheque -->
    </person>
    <person id="bus_rider_439" type="bus_rider_4_pedestrian" depart="702.00">
        <stop busStop="bs_7" duration="0.00"/>
        <ride to="27282352#6" busStop="bs_16" lines="312 213"/> <!-- Espace Descartes -->
    </person>
    <person id="bus_rider_440" type="bus_rider_4_pedestrian" depart="720.00">
        <stop busStop="bs_5" duration="0.00"/>
        <ride to="-23714280#5" busStop="bs_7" lines="312 213"/> <!-- Bibliotheque -->
    </person>
    <person id="bus_rider_441" type="bus_rider_4_pedestrian" depart="738.00">
        <stop busStop="bs_10" duration="0.00"/>
        <ride to="-27282358#0" busStop="bs_14" lines="312 213"/> <!-- Einstein - Galilee -->
    </person>
    <person id="bus_rider_442" type="bus_rider_4_pedestrian" depart="756.00">
        <stop busStop="bs_10" duration="0.00"/>
        <ride to="27282352#6" busStop="bs_16" lines="312 213"/> <!-- Espace Descartes -->
    </person>
    <person id="bus_rider_443" type="bus_rider_4_pedestrian" depart="774.00">
        <stop busStop="bs_11" duration="0.00"/>
        <ride to="27282358#13" busStop="bs_11" lines="312 213"/> <!-- Bois de lEtang - Universite -->
    </person>
    <person id="bus_rider_444" type="bus_rider_4_pedestrian" depart="792.00">
        <stop busStop="bs_5" duration="0.00"/>
        <ride to="-670297118" busStop="bs_2" lines="312 213"/> <!-- Crous -->
    </person>
    <person id="bus_rider_445" type="bus_rider_4_pedestrian" depart="810.00">
        <stop busStop="bs_17" duration="0.00"/>
        <ride to="27282352#6" busStop="bs_16" lines="312 213"/> <!-- Espace Descartes -->
    </person>
    <person id="bus_rider_446" type="bus_rider_4_pedestrian" depart="828.00">
        <stop busStop="bs_2" duration="0.00"/>
        <ride to="-27282358#12" busStop="bs_13" lines="312 213"/> <!-- Bois de lEtang - Universite -->
    </person>
    <person id="bus_rider_447" type="bus_rider_4_pedestrian" depart="846.00">
        <stop busStop="bs_15" duration="0.00"/>
        <ride to="23714277#4" busStop="bs_10" lines="312 213"/> <!-- Galilee - Pascal -->
    </person>
    <person id="bus_rider_448" type="bus_rider_4_pedestrian" depart="864.00">
        <stop busStop="bs_3" duration="0.00"/>
        <ride to="1091733345" busStop="bs_17" lines="312 213"/> <!-- Noisy Champs - RER - Descartes -->
    </person>
    <person id="bus_rider_449" type="bus_rider_4_pedestrian" depart="882.00">
        <stop busStop="bs_11" duration="0.00"/>
        <ride to="27282358#2" busStop="bs_12" lines="312 213"/> <!-- Einstein - Galilee -->
    </person>
    <person id="bus_rider_450" type="bus_rider_4_pedestrian" depart="900.00">
        <stop busStop="bs_4" duration="0.00"/>
        <ride to="23714277#4" busStop="bs_10" lines="312 213"/> <!-- Galilee - Pascal -->
    </person>
    <person id="bus_rider_451" type="bus_rider_4_pedestrian" depart="918.00">
        <stop busStop="bs_6" duration="0.00"/>
        <ride to="27282358#2" busStop="bs_12" lines="312 213"/> <!-- Einstein - Galilee -->
    </person>
    <person id="bus_rider_452" type="bus_rider_4_pedestrian" depart="936.00">
        <stop busStop="bs_17" duration="0.00"/>
        <ride to="-27282352#7" busStop="bs_15" lines="312 213"/> <!-- Espace Descartes -->
    </person>
    <person id="bus_rider_453" type="bus_rider_4_pedestrian" depart="954.00">
        <stop busStop="bs_3" duration="0.00"/>
        <ride to="-23714280#5" busStop="bs_7" lines="312 213"/> <!-- Bibliotheque -->
    </person>
    <person id="bus_rider_454" type="bus_rider_4_pedestrian" depart="972.00">
        <stop busStop="bs_6" duration="0.00"/>
        <ride to="27282358#13" busStop="bs_11" lines="312 213"/> <!-- Bois de lEtang - Universite -->
    </person>
    <person id="bus_rider_455" type="bus_rider_4_pedestrian" depart="990.00">
        <stop busStop="bs_16" duration="0.00"/>
        <ride to="27282352#6" busStop="bs_16" lines="312 213"/> <!-- Espace Descartes -->
    </person>
    <person id="bus_rider_456" type="bus_rider_4_pedestrian" depart="1008.00">
        <stop busStop="bs_15" duration="0.00"/>
        <ride to="-27282352#7" busStop="bs_15" lines="312 213"/> <!-- Espace Descartes -->
    </person>
    <person id="bus_rider_457" type="bus_rider_4_pedestrian" depart="1026.00">
        <stop busStop="bs_16" duration="0.00"/>
        <ride to="-23714280#5" busStop="bs_7" lines="312 213"/> <!-- Bibliotheque -->
    </person>
    <person id="bus_rider_458" type="bus_rider_4_pedestrian" depart="1044.00">
        <stop busStop="bs_7" duration="0.00"/>
        <ride to="23714277#4" busStop="bs_10" lines="312 213"/> <!-- Galilee - Pascal -->
    </person>
    <person id="bus_rider_459" type="bus_rider_4_pedestrian" depart="1062.00">
        <stop busStop="bs_8" duration="0.00"/>
        <ride to="23792272" busStop="bs_4" lines="312 213"/> <!-- Nobel -->
    </person>
    <person id="bus_rider_460" type="bus_rider_4_pedestrian" depart="1080.00">
        <stop busStop="bs_5" duration="0.00"/>
        <ride to="27282359#1" busStop="bs_6" lines="312 213"/> <!-- freres lumiere - Ipu -->
    </person>
    <person id="bus_rider_461" type="bus_rider_4_pedestrian" depart="1098.00">
        <stop busStop="bs_8" duration="0.00"/>
        <ride to="-670297118" busStop="bs_2" lines="312 213"/> <!-- Crous -->
    </person>
    <person id="bus_rider_462" type="bus_rider_4_pedestrian" depart="1116.00">
        <stop busStop="bs_15" duration="0.00"/>
        <ride to="27282352#6" busStop="bs_16" lines="312 213"/> <!-- Espace Descartes -->
    </person>
    <person id="bus_rider_463" type="bus_rider_4_pedestrian" depart="1134.00">
        <stop busStop="bs_2" duration="0.00"/>
        <ride to="23792272" busStop="bs_4" lines="312 213"/> <!-- Nobel -->
    </person>
    <person id="bus_rider_464" type="bus_rider_4_pedestrian" depart="1152.00">
        <stop busStop="bs_13" duration="0.00"/>
        <ride to="27282358#13" busStop="bs_11" lines="312 213"/> <!-- Bois de lEtang - Universite -->
    </person>
    <person id="bus_rider_465" type="bus_rider_4_pedestrian" depart="1170.00">
        <stop busStop="bs_17" duration="0.00"/>
        <ride to="405494696#0" busStop="bs_1" lines="312 213"/> <!-- Crous -->
    </person>
    <person id="bus_rider_466" type="bus_rider_4_pedestrian" depart="1188.00">
        <stop busStop="bs_10" duration="0.00"/>
        <ride to="23714277#4" busStop="bs_10" lines="312 213"/> <!-- Galilee - Pascal -->
    </person>
    <person id="bus_rider_467" type="bus_rider_4_pedestrian" depart="1206.00">
        <stop busStop="bs_6" duration="0.00"/>
        <ride to="27282359#1" busStop="bs_6" lines="312 213"/> <!-- freres lumiere - Ipu -->
    </person>
    <person id="bus_rider_468" type="bus_rider_4_pedestrian" depart="1224.00">
        <stop busStop="bs_3" duration="0.00"/>
        <ride to="27282358#2" busStop="bs_12" lines="312 213"/> <!-- Einstein - Galilee -->
    </person>
    <person id="bus_rider_469" type="bus_rider_4_pedestrian" depart="1242.00">
        <stop busStop="bs_4" duration="0.00"/>
        <ride to="23714277#4" busStop="bs_10" lines="312 213"/> <!-- Galilee - Pascal -->
    </person>
    <person id="bus_rider_470" type="bus_rider_4_pedestrian" depart="1260.00">
        <stop busStop="bs_14" duration="0.00"/>
        <ride to="27282359#1" busStop="bs_6" lines="312 213"/> <!-- freres lumiere - Ipu -->
    </person>
    <person id="bus_rider_471" type="bus_rider_4_pedestrian" depart="1278.00">
        <stop busStop="bs_14" duration="0.00"/>
        <ride to="-27282352#7" busStop="bs_15" lines="312 213"/> <!-- Espace Descartes -->
    </person>
    <person id="bus_rider_472" type="bus_rider_4_pedestrian" depart="1296.00">
        <stop busStop="bs_4" duration="0.00"/>
        <ride to="27282358#2" busStop="bs_12" lines="312 213"/> <!-- Einstein - Galilee -->
    </person>
    <person id="bus_rider_473" type="bus_rider_4_pedestrian" depart="1314.00">
        <stop busStop="bs_6" duration="0.00"/>
        <ride to="27282358#2" busStop="bs_12" lines="312 213"/> <!-- Einstein - Galilee -->
    </person>
    <person id="bus_rider_474" type="bus_rider_4_pedestrian" depart="1332.00">
        <stop busStop="bs_12" duration="0.00"/>
        <ride to="-23714280#5" busStop="bs_7" lines="312 213"/> <!-- Bibliotheque -->
    </person>
    <person id="bus_rider_475" type="bus_rider_4_pedestrian" depart="1350.00">
        <stop busStop="bs_4" duration="0.00"/>
        <ride to="-27282358#0" busStop="bs_14" lines="312 213"/> <!-- Einstein - Galilee -->
    </person>
    <person id="bus_rider_476" type="bus_rider_4_pedestrian" depart="1368.00">
        <stop busStop="bs_10" duration="0.00"/>
        <ride to="-23786199#2" busStop="bs_5" lines="312 213"/> <!-- Freres Lumiere - Ifu -->
    </person>
    <person id="bus_rider_477" type="bus_rider_4_pedestrian" depart="1386.00">
        <stop busStop="bs_12" duration="0.00"/>
        <ride to="23714280#5" busStop="bs_8" lines="312 213"/> <!-- Bibliotheque -->
    </person>
    <person id="bus_rider_478" type="bus_rider_4_pedestrian" depart="1404.00">
        <stop busStop="bs_3" duration="0.00"/>
        <ride to="-27282358#0" busStop="bs_14" lines="312 213"/> <!-- Einstein - Galilee -->
    </person>
    <person id="bus_rider_479" type="bus_rider_4_pedestrian" depart="1422.00">
        <stop busStop="bs_15" duration="0.00"/>
        <ride to="-27282352#7" busStop="bs_15" lines="312 213"/> <!-- Espace Descartes -->
    </person>
    <person id="bus_rider_480" type="bus_rider_4_pedestrian" depart="1440.00">
        <stop busStop="bs_11" duration="0.00"/>
        <ride to="27282359#1" busStop="bs_6" lines="312 213"/> <!-- freres lumiere - Ipu -->
    </person>
    <person id="bus_rider_481" type="bus_rider_4_pedestrian" depart="1458.00">
        <stop busStop="bs_6" duration="0.00"/>
        <ride to="-27282352#7" busStop="bs_15" lines="312 213"/> <!-- Espace Descartes -->
    </person>
    <person id="bus_rider_482" type="bus_rider_4_pedestrian" depart="1476.00">
        <stop busStop="bs_6" duration="0.00"/>
        <ride to="-23714280#5" busStop="bs_7" lines="312 213"/> <!-- Bibliotheque -->
    </person>
    <person id="bus_rider_483" type="bus_rider_4_pedestrian" depart="1494.00">
        <stop busStop="bs_11" duration="0.00"/>
        <ride to="27282358#2" busStop="bs_12" lines="312 213"/> <!-- Einstein - Galilee -->
    </person>
    <person id="bus_rider_484" type="bus_rider_4_pedestrian" depart="1512.00">
        <stop busStop="bs_3" duration="0.00"/>
        <ride to="27282352#6" busStop="bs_16" lines="312 213"/> <!-- Espace Descartes -->
    </person>
    <person id="bus_rider_485" type="bus_rider_4_pedestrian" depart="1530.00">
        <stop busStop="bs_12" duration="0.00"/>
        <ride to="-27282352#7" busStop="bs_15" lines="312 213"/> <!-- Espace Descartes -->
    </person>
    <person id="bus_rider_486" type="bus_rider_4_pedestrian" depart="1548.00">
        <stop busStop="bs_14" duration="0.00"/>
        <ride to="27282358#13" busStop="bs_11" lines="312 213"/> <!-- Bois de lEtang - Universite -->
    </person>
    <person id="bus_rider_487" type="bus_rider_4_pedestrian" depart="1566.00">
        <stop busStop="bs_7" duration="0.00"/>
        <ride to="-27282352#7" busStop="bs_15" lines="312 213"/> <!-- Espace Descartes -->
    </person>
    <person id="bus_rider_488" type="bus_rider_4_pedestrian" depart="1584.00">
        <stop busStop="bs_12" duration="0.00"/>
        <ride to="405494696#0" busStop="bs_1" lines="312 213"/> <!-- Crous -->
    </person>
    <person id="bus_rider_489" type="bus_rider_4_pedestrian" depart="1602.00">
        <stop busStop="bs_4" duration="0.00"/>
        <ride to="-670297118" busStop="bs_2" lines="312 213"/> <!-- Crous -->
    </person>
    <person id="bus_rider_490" type="bus_rider_4_pedestrian" depart="1620.00">
        <stop busStop="bs_5" duration="0.00"/>
        <ride to="405494696#0" busStop="bs_1" lines="312 213"/> <!-- Crous -->
    </person>
    <person id="bus_rider_491" type="bus_rider_4_pedestrian" depart="1638.00">
        <stop busStop="bs_7" duration="0.00"/>
        <ride to="23714280#5" busStop="bs_8" lines="312 213"/> <!-- Bibliotheque -->
    </person>
    <person id="bus_rider_492" type="bus_rider_4_pedestrian" depart="1656.00">
        <stop busStop="bs_2" duration="0.00"/>
        <ride to="405494696#0" busStop="bs_1" lines="312 213"/> <!-- Crous -->
    </person>
    <person id="bus_rider_493" type="bus_rider_4_pedestrian" depart="1674.00">
        <stop busStop="bs_6" duration="0.00"/>
        <ride to="-27282352#7" busStop="bs_15" lines="312 213"/> <!-- Espace Descartes -->
    </person>
    <person id="bus_rider_494" type="bus_rider_4_pedestrian" depart="1692.00">
        <stop busStop="bs_7" duration="0.00"/>
        <ride to="27282359#1" busStop="bs_6" lines="312 213"/> <!-- freres lumiere - Ipu -->
    </person>
    <person id="bus_rider_495" type="bus_rider_4_pedestrian" depart="1710.00">
        <stop busStop="bs_2" duration="0.00"/>
        <ride to="405494696#0" busStop="bs_1" lines="312 213"/> <!-- Crous -->
    </person>
    <person id="bus_rider_496" type="bus_rider_4_pedestrian" depart="1728.00">
        <stop busStop="bs_4" duration="0.00"/>
        <ride to="-23786199#2" busStop="bs_5" lines="312 213"/> <!-- Freres Lumiere - Ifu -->
    </person>
    <person id="bus_rider_497" type="bus_rider_4_pedestrian" depart="1746.00">
        <stop busStop="bs_4" duration="0.00"/>
        <ride to="-27282358#12" busStop="bs_13" lines="312 213"/> <!-- Bois de lEtang - Universite -->
    </person>
    <person id="bus_rider_498" type="bus_rider_4_pedestrian" depart="1764.00">
        <stop busStop="bs_15" duration="0.00"/>
        <ride to="23792272" busStop="bs_4" lines="312 213"/> <!-- Nobel -->
    </person>
    <person id="bus_rider_499" type="bus_rider_4_pedestrian" depart="1782.00">
        <stop busStop="bs_8" duration="0.00"/>
        <ride to="-27282358#0" busStop="bs_14" lines="312 213"/> <!-- Einstein - Galilee -->
    </person>
    <person id="bus_rider_4100" type="bus_rider_4_pedestrian" depart="1800.00">
        <stop busStop="bs_14" duration="0.00"/>
        <ride to="-670297118" busStop="bs_2" lines="312 213"/> <!-- Crous -->
    </person>
    <person id="bus_rider_4101" type="bus_rider_4_pedestrian" depart="1818.00">
        <stop busStop="bs_17" duration="0.00"/>
        <ride to="23792272" busStop="bs_4" lines="312 213"/> <!-- Nobel -->
    </person>
    <person id="bus_rider_4102" type="bus_rider_4_pedestrian" depart="1836.00">
        <stop busStop="bs_4" duration="0.00"/>
        <ride to="-27282358#0" busStop="bs_14" lines="312 213"/> <!-- Einstein - Galilee -->
    </person>
    <person id="bus_rider_4103" type="bus_rider_4_pedestrian" depart="1854.00">
        <stop busStop="bs_12" duration="0.00"/>
        <ride to="27282358#13" busStop="bs_11" lines="312 213"/> <!-- Bois de lEtang - Universite -->
    </person>
    <person id="bus_rider_4104" type="bus_rider_4_pedestrian" depart="1872.00">
        <stop busStop="bs_11" duration="0.00"/>
        <ride to="-23792272" busStop="bs_3" lines="312 213"/> <!-- Nobel -->
    </person>
    <person id="bus_rider_4105" type="bus_rider_4_pedestrian" depart="1890.00">
        <stop busStop="bs_1" duration="0.00"/>
        <ride to="23714280#5" busStop="bs_8" lines="312 213"/> <!-- Bibliotheque -->
    </person>
    <person id="bus_rider_4106" type="bus_rider_4_pedestrian" depart="1908.00">
        <stop busStop="bs_2" duration="0.00"/>
        <ride to="23792272" busStop="bs_4" lines="312 213"/> <!-- Nobel -->
    </person>
    <person id="bus_rider_4107" type="bus_rider_4_pedestrian" depart="1926.00">
        <stop busStop="bs_17" duration="0.00"/>
        <ride to="-27282352#7" busStop="bs_15" lines="312 213"/> <!-- Espace Descartes -->
    </person>
    <person id="bus_rider_4108" type="bus_rider_4_pedestrian" depart="1944.00">
        <stop busStop="bs_11" duration="0.00"/>
        <ride to="-27282352#7" busStop="bs_15" lines="312 213"/> <!-- Espace Descartes -->
    </person>
    <person id="bus_rider_4109" type="bus_rider_4_pedestrian" depart="1962.00">
        <stop busStop="bs_10" duration="0.00"/>
        <ride to="27282359#1" busStop="bs_6" lines="312 213"/> <!-- freres lumiere - Ipu -->
    </person>
    <person id="bus_rider_4110" type="bus_rider_4_pedestrian" depart="1980.00">
        <stop busStop="bs_3" duration="0.00"/>
        <ride to="1091733345" busStop="bs_17" lines="312 213"/> <!-- Noisy Champs - RER - Descartes -->
    </person>
    <person id="bus_rider_4111" type="bus_rider_4_pedestrian" depart="1998.00">
        <stop busStop="bs_8" duration="0.00"/>
        <ride to="27282352#6" busStop="bs_16" lines="312 213"/> <!-- Espace Descartes -->
    </person>
    <person id="bus_rider_4112" type="bus_rider_4_pedestrian" depart="2016.00">
        <stop busStop="bs_6" duration="0.00"/>
        <ride to="27282352#6" busStop="bs_16" lines="312 213"/> <!-- Espace Descartes -->
    </person>
    <person id="bus_rider_4113" type="bus_rider_4_pedestrian" depart="2034.00">
        <stop busStop="bs_14" duration="0.00"/>
        <ride to="-27282352#7" busStop="bs_15" lines="312 213"/> <!-- Espace Descartes -->
    </person>
    <person id="bus_rider_4114" type="bus_rider_4_pedestrian" depart="2052.00">
        <stop busStop="bs_4" duration="0.00"/>
        <ride to="-27282358#0" busStop="bs_14" lines="312 213"/> <!-- Einstein - Galilee -->
    </person>
    <person id="bus_rider_4115" type="bus_rider_4_pedestrian" depart="2070.00">
        <stop busStop="bs_15" duration="0.00"/>
        <ride to="-27282358#12" busStop="bs_13" lines="312 213"/> <!-- Bois de lEtang - Universite -->
    </person>
    <person id="bus_rider_4116" type="bus_rider_4_pedestrian" depart="2088.00">
        <stop busStop="bs_3" duration="0.00"/>
        <ride to="-670297118" busStop="bs_2" lines="312 213"/> <!-- Crous -->
    </person>
    <person id="bus_rider_4117" type="bus_rider_4_pedestrian" depart="2106.00">
        <stop busStop="bs_5" duration="0.00"/>
        <ride to="-670297118" busStop="bs_2" lines="312 213"/> <!-- Crous -->
    </person>
    <person id="bus_rider_4118" type="bus_rider_4_pedestrian" depart="2124.00">
        <stop busStop="bs_7" duration="0.00"/>
        <ride to="27282358#2" busStop="bs_12" lines="312 213"/> <!-- Einstein - Galilee -->
    </person>
    <person id="bus_rider_4119" type="bus_rider_4_pedestrian" depart="2142.00">
        <stop busStop="bs_12" duration="0.00"/>
        <ride to="27282358#13" busStop="bs_11" lines="312 213"/> <!-- Bois de lEtang - Universite -->
    </person>
    <person id="bus_rider_4120" type="bus_rider_4_pedestrian" depart="2160.00">
        <stop busStop="bs_7" duration="0.00"/>
        <ride to="-27282358#12" busStop="bs_13" lines="312 213"/> <!-- Bois de lEtang - Universite -->
    </person>
    <person id="bus_rider_4121" type="bus_rider_4_pedestrian" depart="2178.00">
        <stop busStop="bs_10" duration="0.00"/>
        <ride to="27282352#6" busStop="bs_16" lines="312 213"/> <!-- Espace Descartes -->
    </person>
    <person id="bus_rider_4122" type="bus_rider_4_pedestrian" depart="2196.00">
        <stop busStop="bs_15" duration="0.00"/>
        <ride to="-670297118" busStop="bs_2" lines="312 213"/> <!-- Crous -->