<?xml version="1.0" encoding="UTF-8"?>

<!-- generated on 2024-04-22 02:03:47.810956 by randomTrips.py v1_19_0+0000-baa66a0f364
<configuration>
    <net-file value="../sumo_project\osm.net.xml.gz"/>
    <additional-files value="../sumo_project\osm.poly.xml.gz"/>
    <output-trip-file value="../sumo_project\trips\osm.passenger_4.trips.xml"/>
    <route-file value="../sumo_project\trips\osm.passenger_4.rou.xml"/>
    <prefix value="passenger_4"/>
    <vehicle-class value="passenger"/>
    <min-distance value="10.0"/>
    <remove-loops value="True"/>
    <validate value="True"/>
    <end value="86400.0"/>
    <insertion-rate value="200.0"/>
</configuration>
-->

<!-- generated on 2024-04-22 02:03:47 by Eclipse SUMO duarouter Version 1.19.0
<configuration xmlns:xsi="http://www.w3.org/2001/XMLSchema-instance" xsi:noNamespaceSchemaLocation="http://sumo.dlr.de/xsd/duarouterConfiguration.xsd">

    <input>
        <net-file value="../sumo_project\osm.net.xml.gz"/>
        <additional-files value="../sumo_project\osm.poly.xml.gz"/>
        <route-files value="../sumo_project\trips\osm.passenger_4.trips.xml"/>
    </input>

    <output>
        <output-file value="../sumo_project\trips\osm.passenger_4.trips.xml.tmp"/>
        <alternatives-output value="NUL"/>
        <write-trips value="true"/>
    </output>

    <processing>
        <remove-loops value="true"/>
    </processing>

    <time>
        <begin value="0.0"/>
        <end value="86400.0"/>
    </time>

    <report>
        <no-warnings value="true"/>
        <ignore-errors value="true"/>
        <no-step-log value="true"/>
    </report>

</configuration>
-->

<routes xmlns:xsi="http://www.w3.org/2001/XMLSchema-instance" xsi:noNamespaceSchemaLocation="http://sumo.dlr.de/xsd/routes_file.xsd">
    <vType id="passenger_4_passenger" vClass="passenger"/>
    <trip id="passenger_40" type="passenger_4_passenger" depart="0.00" from="23714286#0" to="187718053#1"/>
    <trip id="passenger_41" type="passenger_4_passenger" depart="18.00" from="-27282358#11" to="260136572#5"/>
    <trip id="passenger_42" type="passenger_4_passenger" depart="36.00" from="260136572#5" to="23714319#0"/>
    <trip id="passenger_43" type="passenger_4_passenger" depart="54.00" from="27282384#4" to="-23714277#4"/>
    <trip id="passenger_44" type="passenger_4_passenger" depart="72.00" from="-987217843#0" to="-187718053#2"/>
    <trip id="passenger_45" type="passenger_4_passenger" depart="90.00" from="-260136572#3" to="188608390#4"/>
    <trip id="passenger_46" type="passenger_4_passenger" depart="108.00" from="-187718053#2" to="23786206#1"/>
    <trip id="passenger_47" type="passenger_4_passenger" depart="126.00" from="-23714286#3" to="213159004#4"/>
    <trip id="passenger_49" type="passenger_4_passenger" depart="162.00" from="27282358#15" to="-1026432878"/>
    <trip id="passenger_410" type="passenger_4_passenger" depart="180.00" from="-27282358#14" to="-23786199#3"/>
    <trip id="passenger_411" type="passenger_4_passenger" depart="198.00" from="-27282359#4" to="-23714318#0"/>
    <trip id="passenger_412" type="passenger_4_passenger" depart="216.00" from="932432702" to="-27282359#3"/>
    <trip id="passenger_413" type="passenger_4_passenger" depart="234.00" from="-23714280#1" to="-23714280#1"/>
    <trip id="passenger_414" type="passenger_4_passenger" depart="252.00" from="27282359#2" to="-23714280#2"/>
    <trip id="passenger_415" type="passenger_4_passenger" depart="270.00" from="27282358#15" to="260136572#4"/>
    <trip id="passenger_416" type="passenger_4_passenger" depart="288.00" from="213159004#3" to="932432705"/>
    <trip id="passenger_417" type="passenger_4_passenger" depart="306.00" from="-27282384#4" to="213159004#6"/>
    <trip id="passenger_418" type="passenger_4_passenger" depart="324.00" from="27282358#8" to="23714280#6"/>
    <trip id="passenger_420" type="passenger_4_passenger" depart="360.00" from="-23786206#0" to="188608390#4"/>
    <trip id="passenger_421" type="passenger_4_passenger" depart="378.00" from="-27282352#0" to="-27282358#14"/>
    <trip id="passenger_422" type="passenger_4_passenger" depart="396.00" from="-213159004#8" to="-27282352#1"/>
    <trip id="passenger_423" type="passenger_4_passenger" depart="414.00" from="-23714280#3" to="-27282358#11"/>
    <trip id="passenger_424" type="passenger_4_passenger" depart="432.00" from="23714286#0" to="-27282384#1"/>
    <trip id="passenger_425" type="passenger_4_passenger" depart="450.00" from="-27282384#2" to="260136572#0"/>
    <trip id="passenger_426" type="passenger_4_passenger" depart="468.00" from="-27282358#1" to="584181257"/>
    <trip id="passenger_427" type="passenger_4_passenger" depart="486.00" from="-23714286#2" to="-23714280#3"/>
    <trip id="passenger_428" type="passenger_4_passenger" depart="504.00" from="-23714319#1" to="260136572#3"/>
    <trip id="passenger_429" type="passenger_4_passenger" depart="522.00" from="-23714319#0" to="-27282384#4"/>
    <trip id="passenger_431" type="passenger_4_passenger" depart="558.00" from="213159005#2" to="23786199#0"/>
    <trip id="passenger_432" type="passenger_4_passenger" depart="576.00" from="-27282359#1" to="27282352#8"/>
    <trip id="passenger_433" type="passenger_4_passenger" depart="594.00" from="-27282352#0" to="188608390#1"/>
    <trip id="passenger_434" type="passenger_4_passenger" depart="612.00" from="-27282358#8" to="-27282358#1"/>
    <trip id="passenger_435" type="passenger_4_passenger" depart="630.00" from="-260136572#1" to="584181258"/>
    <trip id="passenger_436" type="passenger_4_passenger" depart="648.00" from="27282384#1" to="27282358#8"/>
    <trip id="passenger_438" type="passenger_4_passenger" depart="684.00" from="-405494696#2" to="187718053#2"/>
    <trip id="passenger_439" type="passenger_4_passenger" depart="702.00" from="-27282358#0" to="-27282352#4"/>
    <trip id="passenger_440" type="passenger_4_passenger" depart="720.00" from="213159005#4" to="-27282358#0"/>
    <trip id="passenger_441" type="passenger_4_passenger" depart="738.00" from="232805395#1" to="27282384#6"/>
    <trip id="passenger_442" type="passenger_4_passenger" depart="756.00" from="-405494696#0" to="260136572#4"/>
    <trip id="passenger_443" type="passenger_4_passenger" depart="774.00" from="992341627#3" to="188608390#5"/>
    <trip id="passenger_444" type="passenger_4_passenger" depart="792.00" from="-23714280#1" to="-188608390#4"/>
    <trip id="passenger_445" type="passenger_4_passenger" depart="810.00" from="23714280#5" to="-23714284"/>
    <trip id="passenger_446" type="passenger_4_passenger" depart="828.00" from="27282358#11" to="670297118"/>
    <trip id="passenger_447" type="passenger_4_passenger" depart="846.00" from="-213159004#3" to="-27282384#4"/>
    <trip id="passenger_448" type="passenger_4_passenger" depart="864.00" from="992341627#3" to="213159004#0"/>
    <trip id="passenger_449" type="passenger_4_passenger" depart="882.00" from="932432705" to="-27282359#5"/>
    <trip id="passenger_450" type="passenger_4_passenger" depart="900.00" from="150480531#0" to="260136572#0"/>
    <trip id="passenger_451" type="passenger_4_passenger" depart="918.00" from="23714319#0" to="213159004#3"/>
    <trip id="passenger_452" type="passenger_4_passenger" depart="936.00" from="-27282358#1" to="23714286#2"/>
    <trip id="passenger_453" type="passenger_4_passenger" depart="954.00" from="23714280#5" to="1026432877#1"/>
    <trip id="passenger_454" type="passenger_4_passenger" depart="972.00" from="187718053#2" to="932432701"/>
    <trip id="passenger_455" type="passenger_4_passenger" depart="990.00" from="27282384#1" to="27282358#0"/>
    <trip id="passenger_456" type="passenger_4_passenger" depart="1008.00" from="-188608390#4" to="-23786199#0"/>
    <trip id="passenger_457" type="passenger_4_passenger" depart="1026.00" from="-405494696#0" to="27282359#7"/>
    <trip id="passenger_458" type="passenger_4_passenger" depart="1044.00" from="-27282358#2" to="23714286#1"/>
    <trip id="passenger_459" type="passenger_4_passenger" depart="1062.00" from="23714280#2" to="-23714286#5"/>
    <trip id="passenger_460" type="passenger_4_passenger" depart="1080.00" from="27282352#5" to="213159004#3"/>
    <trip id="passenger_461" type="passenger_4_passenger" depart="1098.00" from="27282358#0" to="213159004#0"/>
    <trip id="passenger_462" type="passenger_4_passenger" depart="1116.00" from="1026432877#0" to="-27282359#0"/>
    <trip id="passenger_463" type="passenger_4_passenger" depart="1134.00" from="-187718053#0" to="584181253"/>
    <trip id="passenger_464" type="passenger_4_passenger" depart="1152.00" from="27282384#1" to="27282358#8"/>
    <trip id="passenger_465" type="passenger_4_passenger" depart="1170.00" from="-27282358#5" to="-213159004#1"/>
    <trip id="passenger_466" type="passenger_4_passenger" depart="1188.00" from="27282384#1" to="670297118"/>
    <trip id="passenger_468" type="passenger_4_passenger" depart="1224.00" from="-213159004#5" to="27282352#5"/>
    <trip id="passenger_469" type="passenger_4_passenger" depart="1242.00" from="27282352#6" to="23714284"/>
    <trip id="passenger_470" type="passenger_4_passenger" depart="1260.00" from="187816766#4" to="213159004#6"/>
    <trip id="passenger_471" type="passenger_4_passenger" depart="1278.00" from="-27282358#0" to="27282359#8"/>
    <trip id="passenger_472" type="passenger_4_passenger" depart="1296.00" from="260136572#5" to="-260136572#1"/>
    <trip id="passenger_473" type="passenger_4_passenger" depart="1314.00" from="213159004#4" to="-260136572#4"/>
    <trip id="passenger_474" type="passenger_4_passenger" depart="1332.00" from="-23786206#2" to="-27282358#6"/>
    <trip id="passenger_475" type="passenger_4_passenger" depart="1350.00" from="992341627#2" to="23714286#4"/>
    <trip id="passenger_476" type="passenger_4_passenger" depart="1368.00" from="150480531#1" to="189253789#0"/>
    <trip id="passenger_477" type="passenger_4_passenger" depart="1386.00" from="23714284" to="260136572#5"/>
    <trip id="passenger_479" type="passenger_4_passenger" depart="1422.00" from="-27282352#0" to="260136572#4"/>
    <trip id="passenger_480" type="passenger_4_passenger" depart="1440.00" from="-213159004#5" to="23714286#0"/>
    <trip id="passenger_481" type="passenger_4_passenger" depart="1458.00" from="27282352#0" to="27282384#7"/>
    <trip id="passenger_482" type="passenger_4_passenger" depart="1476.00" from="27282359#5" to="-213159004#5"/>
    <trip id="passenger_483" type="passenger_4_passenger" depart="1494.00" from="-27282352#2" to="-23714318#1"/>
    <trip id="passenger_484" type="passenger_4_passenger" depart="1512.00" from="-260136572#1" to="-23714286#0"/>
    <trip id="passenger_485" type="passenger_4_passenger" depart="1530.00" from="584181256" to="213159005#6"/>
    <trip id="passenger_486" type="passenger_4_passenger" depart="1548.00" from="187816766#4" to="27282358#1"/>
    <trip id="passenger_487" type="passenger_4_passenger" depart="1566.00" from="-27282358#15" to="-23786199#3"/>
    <trip id="passenger_488" type="passenger_4_passenger" depart="1584.00" from="23714280#2" to="1026432877#0"/>
    <trip id="passenger_489" type="passenger_4_passenger" depart="1602.00" from="-987217843#0" to="187816766#1"/>
    <trip id="passenger_490" type="passenger_4_passenger" depart="1620.00" from="-260136572#3" to="23714318#2"/>
    <trip id="passenger_491" type="passenger_4_passenger" depart="1638.00" from="987217843#0" to="-23714280#1"/>
    <trip id="passenger_492" type="passenger_4_passenger" depart="1656.00" from="-405494696#0" to="-27282359#4"/>
    <trip id="passenger_493" type="passenger_4_passenger" depart="1674.00" from="-27282359#5" to="-27282352#4"/>
    <trip id="passenger_494" type="passenger_4_passenger" depart="1692.00" from="-23786206#0" to="187718053#0"/>
    <trip id="passenger_495" type="passenger_4_passenger" depart="1710.00" from="-987217843#0" to="-27282358#11"/>
    <trip id="passenger_496" type="passenger_4_passenger" depart="1728.00" from="-27282352#5" to="-468478392#1"/>
    <trip id="passenger_497" type="passenger_4_passenger" depart="1746.00" from="187718053#0" to="27282359#5"/>
    <trip id="passenger_498" type="passenger_4_passenger" depart="1764.00" from="213159004#7" to="188608390#5"/>
    <trip id="passenger_499" type="passenger_4_passenger" depart="1782.00" from="992341627#3" to="27282358#9"/>
    <trip id="passenger_4100" type="passenger_4_passenger" depart="1800.00" from="932432704" to="-468478392#1"/>
    <trip id="passenger_4101" type="passenger_4_passenger" depart="1818.00" from="-27282359#2" to="-23714318#2"/>
    <trip id="passenger_4102" type="passenger_4_passenger" depart="1836.00" from="-188608390#1" to="260136572#1"/>
    <trip id="passenger_4103" type="passenger_4_passenger" depart="1854.00" from="-405494696#0" to="-213159004#1"/>
    <trip id="passenger_4104" type="passenger_4_passenger" depart="1872.00" from="-27282384#4" to="987217843#0"/>
    <trip id="passenger_4105" type="passenger_4_passenger" depart="1890.00" from="27282358#0" to="27282358#1"/>
    <trip id="passenger_4106" type="passenger_4_passenger" depart="1908.00" from="187816766#0" to="670297118"/>
    <trip id="passenger_4107" type="passenger_4_passenger" depart="1926.00" from="932432702" to="992341626#1"/>
    <trip id="passenger_4108" type="passenger_4_passenger" depart="1944.00" from="213159005#2" to="260136572#0"/>
    <trip id="passenger_4109" type="passenger_4_passenger" depart="1962.00" from="-23714318#1" to="-27282358#2"/>
    <trip id="passenger_4111" type="passenger_4_passenger" depart="1998.00" from="213159004#5" to="27282352#2"/>
    <trip id="passenger_4113" type="passenger_4_passenger" depart="2034.00" from="-188608390#5" to="27282359#3"/>
    <trip id="passenger_4114" type="passenger_4_passenger" depart="2052.00" from="-23714318#1" to="932432703"/>
    <trip id="passenger_4115" type="passenger_4_passenger" depart="2070.00" from="-213159004#8" to="-23786199#2"/>
    <trip id="passenger_4116" type="passenger_4_passenger" depart="2088.00" from="23714277#4" to="23714319#0"/>
    <trip id="passenger_4117" type="passenger_4_passenger" depart="2106.00" from="-27282352#1" to="-23714280#6"/>
    <trip id="passenger_4118" type="passenger_4_passenger" depart="2124.00" from="-27282384#4" to="-27282352#4"/>
    <trip id="passenger_4119" type="passenger_4_passenger" depart="2142.00" from="23714277#4" to="23714280#6"/>
    <trip id="passenger_4123" type="passenger_4_passenger" depart="2214.00" from="23714318#1" to="-27282358#2"/>
    <trip id="passenger_4124" type="passenger_4_passenger" depart="2232.00" from="-27282358#8" to="27282352#3"/>
    <trip id="passenger_4125" type="passenger_4_passenger" depart="2250.00" from="-213159004#5" to="187718053#2"/>
    <trip id="passenger_4126" type="passenger_4_passenger" depart="2268.00" from="992341627#3" to="992341627#3"/>
    <trip id="passenger_4127" type="passenger_4_passenger" depart="2286.00" from="-213159004#6" to="260136572#1"/>
    <trip id="passenger_4128" type="passenger_4_passenger" depart="2304.00" from="-27282358#0" to="584181258"/>
    <trip id="passenger_4129" type="passenger_4_passenger" depart="2322.00" from="-27282384#2" to="-23714318#0"/>
    <trip id="passenger_4130" type="passenger_4_passenger" depart="2340.00" from="27282358#9" to="23786206#0"/>
    <trip id="passenger_4131" type="passenger_4_passenger" depart="2358.00" from="23714280#3" to="992341626#0"/>
    <trip id="passenger_4132" type="passenger_4_passenger" depart="2376.00" from="23714286#4" to="1026432877#1"/>
    <trip id="passenger_4133" type="passenger_4_passenger" depart="2394.00" from="-27282358#3" to="-27282358#2"/>
    <trip id="passenger_4134" type="passenger_4_passenger" depart="2412.00" from="23714307" to="584181257"/>
    <trip id="passenger_4135" type="passenger_4_passenger" depart="2430.00" from="-23714286#2" to="-23714280#5"/>
    <trip id="passenger_4136" type="passenger_4_passenger" depart="2448.00" from="-23714280#4" to="213159004#6"/>
    <trip id="passenger_4137" type="passenger_4_passenger" depart="2466.00" from="27282358#10" to="23714280#2"/>
    <trip id="passenger_4138" type="passenger_4_passenger" depart="2484.00" from="-260136572#0" to="-23792272"/>
    <trip id="passenger_4139" type="passenger_4_passenger" depart="2502.00" from="-23714284" to="-27282358#0"/>
    <trip id="passenger_4140" type="passenger_4_passenger" depart="2520.00" from="-188608390#1" to="27282384#7"/>
    <trip id="passenger_4141" type="passenger_4_passenger" depart="2538.00" from="27282359#2" to="-23714280#0"/>
    <trip id="passenger_4142" type="passenger_4_passenger" depart="2556.00" from="-987217843#0" to="-27282358#11"/>
    <trip id="passenger_4143" type="passenger_4_passenger" depart="2574.00" from="-1026432877#0" to="27282352#7"/>
    <trip id="passenger_4144" type="passenger_4_passenger" depart="2592.00" from="23714286#0" to="-27282358#0"/>
    <trip id="passenger_4145" type="passenger_4_passenger" depart="2610.00" from="27282352#0" to="213159004#6"/>
    <trip id="passenger_4146" type="passenger_4_passenger" depart="2628.00" from="1026432877#0" to="150480531#0"/>
    <trip id="passenger_4147" type="passenger_4_passenger" depart="2646.00" from="-213159004#6" to="27282384#2"/>
    <trip id="passenger_4148" type="passenger_4_passenger" depart="2664.00" from="27282384#7" to="213159004#5"/>
    <trip id="passenger_4150" type="passenger_4_passenger" depart="2700.00" from="-23714286#5" to="-23714284"/>
    <trip id="passenger_4151" type="passenger_4_passenger" depart="2718.00" from="-27282358#5" to="-27282384#6"/>
    <trip id="passenger_4152" type="passenger_4_passenger" depart="2736.00" from="27282358#12" to="-27282359#5"/>
    <trip id="passenger_4153" type="passenger_4_passenger" depart="2754.00" from="27282384#6" to="260136572#0"/>
    <trip id="passenger_4154" type="passenger_4_passenger" depart="2772.00" from="-27282352#5" to="-23714280#2"/>
    <trip id="passenger_4155" type="passenger_4_passenger" depart="2790.00" from="27282358#0" to="27282384#3"/>
    <trip id="passenger_4156" type="passenger_4_passenger" depart="2808.00" from="-405494696#2" to="-23714280#6"/>
    <trip id="passenger_4157" type="passenger_4_passenger" depart="2826.00" from="-23714318#1" to="584181253"/>
    <trip id="passenger_4159" type="passenger_4_passenger" depart="2862.00" from="-27282358#15" to="27282384#2"/>
    <trip id="passenger_4160" type="passenger_4_passenger" depart="2880.00" from="-187718053#1" to="260136572#5"/>
    <trip id="passenger_4161" type="passenger_4_passenger" depart="2898.00" from="-27282359#2" to="584181253"/>
    <trip id="passenger_4162" type="passenger_4_passenger" depart="2916.00" from="27282358#13" to="-27282359#6"/>
    <trip id="passenger_4163" type="passenger_4_passenger" depart="2934.00" from="-27282358#15" to="-27282358#1"/>
    <trip id="passenger_4164" type="passenger_4_passenger" depart="2952.00" from="27282358#10" to="23714280#4"/>
    <trip id="passenger_4165" type="passenger_4_passenger" depart="2970.00" from="-27282359#8" to="-27282359#5"/>
    <trip id="passenger_4166" type="passenger_4_passenger" depart="2988.00" from="-260136572#4" to="27282358#3"/>
    <trip id="passenger_4167" type="passenger_4_passenger" depart="3006.00" from="187816766#1" to="-27282358#5"/>
    <trip id="passenger_4168" type="passenger_4_passenger" depart="3024.00" from="-27282358#12" to="-27282352#0"/>
    <trip id="passenger_4169" type="passenger_4_passenger" depart="3042.00" from="187718053#1" to="-23786199#3"/>
    <trip id="passenger_4170" type="passenger_4_passenger" depart="3060.00" from="27282359#1" to="27282359#6"/>
    <trip id="passenger_4171" type="passenger_4_passenger" depart="3078.00" from="932432704" to="-27282358#12"/>
    <trip id="passenger_4172" type="passenger_4_passenger" depart="3096.00" from="23714286#1" to="405494696#0"/>
    <trip id="passenger_4174" type="passenger_4_passenger" depart="3132.00" from="584181257" to="-23714280#5"/>
    <trip id="passenger_4175" type="passenger_4_passenger" depart="3150.00" from="932432705" to="-23786199#0"/>
    <trip id="passenger_4176" type="passenger_4_passenger" depart="3168.00" from="932432703" to="-27282358#0"/>
    <trip id="passenger_4177" type="passenger_4_passenger" depart="3186.00" from="23714280#5" to="1026432877#1"/>
    <trip id="passenger_4178" type="passenger_4_passenger" depart="3204.00" from="-260136572#3" to="-27282358#8"/>
    <trip id="passenger_4179" type="passenger_4_passenger" depart="3222.00" from="23714280#2" to="189253787#1"/>
    <trip id="passenger_4181" type="passenger_4_passenger" depart="3258.00" from="-27282352#6" to="23786206#2"/>
    <trip id="passenger_4182" type="passenger_4_passenger" depart="3276.00" from="-1026432877#0" to="-468478392#1"/>
    <trip id="passenger_4183" type="passenger_4_passenger" depart="3294.00" from="213159004#4" to="-260136572#0"/>
    <trip id="passenger_4184" type="passenger_4_passenger" depart="3312.00" from="27282352#0" to="-23714318#2"/>
    <trip id="passenger_4185" type="passenger_4_passenger" depart="3330.00" from="-27282384#0" to="-213159004#5"/>
    <trip id="passenger_4186" type="passenger_4_passenger" depart="3348.00" from="23714307" to="-27282359#1"/>
    <trip id="passenger_4187" type="passenger_4_passenger" depart="3366.00" from="-27282358#8" to="27282359#2"/>
    <trip id="passenger_4188" type="passenger_4_passenger" depart="3384.00" from="-260136572#0" to="-27282358#2"/>
    <trip id="passenger_4189" type="passenger_4_passenger" depart="3402.00" from="-27282358#6" to="-468478391#1"/>
    <trip id="passenger_4190" type="passenger_4_passenger" depart="3420.00" from="-405494696#0" to="-27282358#15"/>
    <trip id="passenger_4191" type="passenger_4_passenger" depart="3438.00" from="23714286#0" to="584181253"/>
    <trip id="passenger_4192" type="passenger_4_passenger" depart="3456.00" from="584181258" to="23714319#0"/>
    <trip id="passenger_4193" type="passenger_4_passenger" depart="3474.00" from="27282384#7" to="23714280#5"/>
    <trip id="passenger_4194" type="passenger_4_passenger" depart="3492.00" from="-27282358#3" to="213159004#5"/>
    <trip id="passenger_4195" type="passenger_4_passenger" depart="3510.00" from="1026432877#0" to="-27282358#13"/>
    <trip id="passenger_4197" type="passenger_4_passenger" depart="3546.00" from="23714286#4" to="187816766#1"/>
    <trip id="passenger_4198" type="passenger_4_passenger" depart="3564.00" from="-187718053#0" to="260136572#1"/>
    <trip id="passenger_4199" type="passenger_4_passenger" depart="3582.00" from="187816766#4" to="27282384#6"/>
    <trip id="passenger_4200" type="passenger_4_passenger" depart="3600.00" from="27282358#12" to="-23714319#0"/>
    <trip id="passenger_4202" type="passenger_4_passenger" depart="3636.00" from="-23714284" to="-27282359#3"/>
    <trip id="passenger_4203" type="passenger_4_passenger" depart="3654.00" from="27282358#3" to="27282352#3"/>
    <trip id="passenger_4204" type="passenger_4_passenger" depart="3672.00" from="-23714318#1" to="260136572#5"/>
    <trip id="passenger_4205" type="passenger_4_passenger" depart="3690.00" from="-23786206#2" to="-187718053#1"/>
    <trip id="passenger_4206" type="passenger_4_passenger" depart="3708.00" from="-27282352#4" to="187816766#3"/>
    <trip id="passenger_4207" type="passenger_4_passenger" depart="3726.00" from="27282359#2" to="-213159004#5"/>
    <trip id="passenger_4208" type="passenger_4_passenger" depart="3744.00" from="-584181253" to="23714284"/>
    <trip id="passenger_4209" type="passenger_4_passenger" depart="3762.00" from="-23786206#1" to="23786199#3"/>
    <trip id="passenger_4210" type="passenger_4_passenger" depart="3780.00" from="188608390#3" to="-27282352#3"/>
    <trip id="passenger_4211" type="passenger_4_passenger" depart="3798.00" from="23714286#4" to="1026432877#1"/>
    <trip id="passenger_4212" type="passenger_4_passenger" depart="3816.00" from="27282352#2" to="27282352#7"/>
    <trip id="passenger_4213" type="passenger_4_passenger" depart="3834.00" from="23714280#4" to="-987217843#0"/>
    <trip id="passenger_4214" type="passenger_4_passenger" depart="3852.00" from="-23786199#0" to="932432703"/>
    <trip id="passenger_4216" type="passenger_4_passenger" depart="3888.00" from="-27282352#5" to="27282359#2"/>
    <trip id="passenger_4217" type="passenger_4_passenger" depart="3906.00" from="187816766#0" to="-27282358#13"/>
    <trip id="passenger_4218" type="passenger_4_passenger" depart="3924.00" from="23714318#0" to="992341626#0"/>
    <trip id="passenger_4219" type="passenger_4_passenger" depart="3942.00" from="23714277#4" to="932432700"/>
    <trip id="passenger_4220" type="passenger_4_passenger" depart="3960.00" from="27282384#4" to="23714280#4"/>
    <trip id="passenger_4221" type="passenger_4_passenger" depart="3978.00" from="-260136572#0" to="188608390#4"/>
    <trip id="passenger_4222" type="passenger_4_passenger" depart="3996.00" from="27282358#8" to="213159004#5"/>
    <trip id="passenger_4223" type="passenger_4_passenger" depart="4014.00" from="27282384#6" to="27282352#1"/>
    <trip id="passenger_4224" type="passenger_4_passenger" depart="4032.00" from="187816766#4" to="-27282352#7"/>
    <trip id="passenger_4225" type="passenger_4_passenger" depart="4050.00" from="-27282352#4" to="23714286#1"/>
    <trip id="passenger_4226" type="passenger_4_passenger" depart="4068.00" from="27282352#6" to="194463373#0"/>
    <trip id="passenger_4227" type="passenger_4_passenger" depart="4086.00" from="23714280#7" to="-27282358#10"/>
    <trip id="passenger_4228" type="passenger_4_passenger" depart="4104.00" from="-213159004#8" to="-27282358#13"/>
    <trip id="passenger_4229" type="passenger_4_passenger" depart="4122.00" from="-27282358#10" to="-27282358#9"/>
    <trip id="passenger_4230" type="passenger_4_passenger" depart="4140.00" from="213159004#4" to="-23714286#2"/>
    <trip id="passenger_4231" type="passenger_4_passenger" depart="4158.00" from="-27282352#0" to="23786199#2"/>
    <trip id="passenger_4232" type="passenger_4_passenger" depart="4176.00" from="-23786206#0" to="-213159004#3"/>
    <trip id="passenger_4233" type="passenger_4_passenger" depart="4194.00" from="-405494696#2" to="213159004#4"/>
    <trip id="passenger_4234" type="passenger_4_passenger" depart="4212.00" from="-584181253" to="260136572#0"/>
    <trip id="passenger_4235" type="passenger_4_passenger" depart="4230.00" from="-670297118" to="27282384#7"/>
    <trip id="passenger_4236" type="passenger_4_passenger" depart="4248.00" from="232805395#1" to="23786199#3"/>
    <trip id="passenger_4237" type="passenger_4_passenger" depart="4266.00" from="-27282359#4" to="27282352#6"/>
    <trip id="passenger_4238" type="passenger_4_passenger" depart="4284.00" from="-27282384#4" to="-1026432878"/>
    <trip id="passenger_4239" type="passenger_4_passenger" depart="4302.00" from="-27282359#6" to="27282352#3"/>
    <trip id="passenger_4240" type="passenger_4_passenger" depart="4320.00" from="-27282359#3" to="932432701"/>
    <trip id="passenger_4241" type="passenger_4_passenger" depart="4338.00" from="-670297118" to="27282352#2"/>
    <trip id="passenger_4242" type="passenger_4_passenger" depart="4356.00" from="213159004#6" to="-23714280#2"/>
    <trip id="passenger_4243" type="passenger_4_passenger" depart="4374.00" from="-260136572#4" to="-260136572#4"/>
    <trip id="passenger_4244" type="passenger_4_passenger" depart="4392.00" from="150480531#0" to="-187718053#2"/>
    <trip id="passenger_4245" type="passenger_4_passenger" depart="4410.00" from="-27282359#3" to="23714319#1"/>
    <trip id="passenger_4246" type="passenger_4_passenger" depart="4428.00" from="-405494696#2" to="-23714318#2"/>
    <trip id="passenger_4247" type="passenger_4_passenger" depart="4446.00" from="187816766#2" to="-23714284"/>
    <trip id="passenger_4248" type="passenger_4_passenger" depart="4464.00" from="23714280#5" to="-187718053#2"/>
    <trip id="passenger_4249" type="passenger_4_passenger" depart="4482.00" from="-27282384#7" to="213159005#4"/>
    <trip id="passenger_4250" type="passenger_4_passenger" depart="4500.00" from="-187718053#2" to="-23714286#2"/>
    <trip id="passenger_4251" type="passenger_4_passenger" depart="4518.00" from="-23714286#2" to="187816766#0"/>
    <trip id="passenger_4252" type="passenger_4_passenger" depart="4536.00" from="188608390#5" to="-27282384#4"/>
    <trip id="passenger_4253" type="passenger_4_passenger" depart="4554.00" from="-260136572#1" to="-27282359#1"/>
    <trip id="passenger_4254" type="passenger_4_passenger" depart="4572.00" from="27282352#5" to="27282384#4"/>
    <trip id="passenger_4255" type="passenger_4_passenger" depart="4590.00" from="27282352#3" to="27282358#8"/>
    <trip id="passenger_4256" type="passenger_4_passenger" depart="4608.00" from="-27282352#5" to="-23714277#3"/>
    <trip id="passenger_4257" type="passenger_4_passenger" depart="4626.00" from="-187718053#0" to="213159004#3"/>
    <trip id="passenger_4258" type="passenger_4_passenger" depart="4644.00" from="992341627#3" to="-27282359#6"/>
    <trip id="passenger_4259" type="passenger_4_passenger" depart="4662.00" from="23714286#3" to="27282358#1"/>
    <trip id="passenger_4260" type="passenger_4_passenger" depart="4680.00" from="23714286#3" to="27282352#3"/>
    <trip id="passenger_4261" type="passenger_4_passenger" depart="4698.00" from="932432700" to="23786206#1"/>
    <trip id="passenger_4262" type="passenger_4_passenger" depart="4716.00" from="-187718053#0" to="-23714286#5"/>
    <trip id="passenger_4263" type="passenger_4_passenger" depart="4734.00" from="23714286#0" to="23714318#1"/>
    <trip id="passenger_4264" type="passenger_4_passenger" depart="4752.00" from="213159005#5" to="260136572#3"/>
    <trip id="passenger_4265" type="passenger_4_passenger" depart="4770.00" from="-23786199#2" to="27282352#6"/>
    <trip id="passenger_4266" type="passenger_4_passenger" depart="4788.00" from="-23714319#1" to="-23714280#3"/>