<?xml version="1.0" encoding="UTF-8"?>

<!-- generated on 2024-04-22 02:03:24.932234 by randomTrips.py v1_19_0+0000-baa66a0f364
<configuration>
    <net-file value="../sumo_project\osm.net.xml.gz"/>
    <additional-files value="../sumo_project\osm.poly.xml.gz"/>
    <output-trip-file value="../sumo_project\trips\osm.pedestrian_2.trips.xml"/>
    <route-file value="../sumo_project\trips\osm.pedestrian_2.rou.xml"/>
    <pedestrians value="True"/>
    <prefix value="pedestrian_2"/>
    <vehicle-class value="pedestrian"/>
    <validate value="True"/>
    <end value="57600.0"/>
    <insertion-rate value="400.0"/>
</configuration>
-->

<!-- generated on 2024-04-22 02:03:23 by Eclipse SUMO duarouter Version 1.19.0
<configuration xmlns:xsi="http://www.w3.org/2001/XMLSchema-instance" xsi:noNamespaceSchemaLocation="http://sumo.dlr.de/xsd/duarouterConfiguration.xsd">

    <input>
        <net-file value="../sumo_project\osm.net.xml.gz"/>
        <additional-files value="../sumo_project\osm.poly.xml.gz"/>
        <route-files value="../sumo_project\trips\osm.pedestrian_2.trips.xml"/>
    </input>

    <output>
        <output-file value="../sumo_project\trips\osm.pedestrian_2.rou.xml"/>
        <alternatives-output value="NUL"/>
    </output>

    <time>
        <begin value="0.0"/>
        <end value="57600.0"/>
    </time>

    <report>
        <no-warnings value="true"/>
        <ignore-errors value="true"/>
        <no-step-log value="true"/>
    </report>

</configuration>
-->

<routes xmlns:xsi="http://www.w3.org/2001/XMLSchema-instance" xsi:noNamespaceSchemaLocation="http://sumo.dlr.de/xsd/routes_file.xsd">
    <vType id="pedestrian_2_pedestrian" vClass="pedestrian"/>
    <person id="pedestrian_20" type="pedestrian_2_pedestrian" depart="0.00">
        <walk edges="354897451#1 -354897451#0 -354897447#2 354897449 -354897447#0 354897459#0 354897465 354897459#6 -27282352#6 -27282352#7 -1103420587 -23903803#7 -23903803#6 23903803#5 -23903803#4 97170542#0 97170542#1 213159036#1 213159036#2 213159036#3 245809991#2 245809991#1 30900562#0 30900562#1 213159034#0 213159034#1 213159034#2 -30900695#1 -261959620#1 -1103420575#0 -1103420576#0 -1103420576#1 -1245828542"/>
    </person>
    <person id="pedestrian_21" type="pedestrian_2_pedestrian" depart="9.00">
        <walk edges="1024301359#2 1024301359#1 1024301359#0 -1024301355#1 -1024301355#0 -23714277#4 23903796#2 1154235456#0 1154235456#1 686881214#0 686881214#1 686881210#0 686881206#1 686881206#2 686881208 686886556#3 -686886558#1 -686886560#0"/>
    </person>
    <person id="pedestrian_22" type="pedestrian_2_pedestrian" depart="18.00">
        <walk edges="437769494#2 437769494#1 437769494#0 -1103420584#0 -23903803#0 -23903803#1 23903803#2 23903803#3 23903803#4 23903803#5 -23903803#6 23903803#7 686887735#0 -354897503#5 354897506"/>
    </person>
    <person id="pedestrian_25" type="pedestrian_2_pedestrian" depart="45.00">
        <walk edges="-686869009 686881202 754203893 754203894 754203895 754203892#0 754203892#1 686881196#1 686881196#2 686881194#4 686881194#3 686886548#0 686886545#0 686881194#1 686881194#0 97170542#0 97170542#1 213159036#1 213159036#2 213159036#3 245809991#2 245809991#1 30900562#0 30900562#1 213159034#0 213159034#1 213159034#2 -30900695#1 -261959620#1 261959620#2"/>
    </person>
    <person id="pedestrian_27" type="pedestrian_2_pedestrian" depart="63.00">
        <walk edges="354897461 354897459#3 354897459#4 354897459#5 354897459#6 -27282352#6 27282352#7"/>
    </person>
    <person id="pedestrian_28" type="pedestrian_2_pedestrian" depart="72.00">
        <walk edges="-686886558#0 686886560#0 686886563 686886545#2 686886545#1 686886545#0 686881194#1 686881194#0 97170542#0 97170542#1 213159036#1 213159036#2 213159036#3 245809991#2 30900606#1 30900606#2 30900606#3 30900606#4 30900471 30900479#4"/>
    </person>
    <person id="pedestrian_210" type="pedestrian_2_pedestrian" depart="90.00">
        <walk edges="686881200 686881206#3 686881206#2 686881206#1 686881210#0 686881214#1 686881214#0 1154235456#2 1154235456#3 1154235456#4 976016571#0 737809019#4 30900419#1 39247578#11 39247578#10"/>
    </person>
    <person id="pedestrian_211" type="pedestrian_2_pedestrian" depart="99.00">
        <walk edges="1076090375#0 976016571#5 572478318#0 572478319#1 572478319#0 572478320#0 39247578#10 39247578#11 30900419#0 -1103420584#0 -23903803#0 -23903803#1 23903803#2 23903803#3 23903803#4 23903803#5 -23903803#6 23903803#7 -1103420587 -27282352#7 -27282352#6 354897459#6 -354897465 -354897459#0"/>
    </person>
    <person id="pedestrian_214" type="pedestrian_2_pedestrian" depart="126.00">
        <walk edges="686886555 686886548#3 686886548#2 686886548#1 686886545#0 686881194#1 686881194#0 97170542#0 97170542#1 213159036#1 213159036#2 213159036#3 245809991#2 30900606#1 30900606#2 30900606#3 30900606#4 30900471 30900479#3 30900479#2 30900479#1 274736667#1 274736667#0 41808957#1 -41808957#0 39247568 670297118 30900653#1"/>
    </person>
    <person id="pedestrian_215" type="pedestrian_2_pedestrian" depart="135.00">
        <walk edges="686881202 754203893 754203894 754203895 754203892#0 754203892#1 686881196#1 686881196#2 686881194#4 686881194#3 686886548#0 686886545#0 686881194#1 686881194#0 97170542#0 97170542#1 213159036#1 213159036#2 213159036#3 245809991#2 30900606#1 30900606#2 30900606#3 30900606#4 30900471 30900479#3 30900479#2 30900479#1 274736667#1 274736667#0 -41808957#1 41808957#0"/>
    </person>
    <person id="pedestrian_217" type="pedestrian_2_pedestrian" depart="153.00">
        <walk edges="1103976375 -1092392561 484412395#4 1003134363#0 1003134363#1 1003134363#2 1003134363#3 1003134363#4 1003134364#0 1097986493#0 1097986493#2 284653194#0 284653194#1 284653194#2 284653194#3 -405494696#0 39247568 41808957#0 41808957#1 274736667#0 274736667#1"/>
    </person>
    <person id="pedestrian_219" type="pedestrian_2_pedestrian" depart="171.00">
        <walk edges="686886567#0 976020611 686886545#4 686886548#3 686886548#2 686886548#1 686886545#0 686881194#1 686881194#0 -23903803#3 23903803#2 686878717#0 1026433810#0 1026436367#0 1026436367#1 1026436361#1 778526396#1 778526396#0 1026436366 30900422"/>
    </person>
    <person id="pedestrian_220" type="pedestrian_2_pedestrian" depart="180.00">
        <walk edges="39247578#5 39247578#4 39247578#3 39247578#2 39247578#1 -39247570#3 -213159026"/>
    </person>
    <person id="pedestrian_221" type="pedestrian_2_pedestrian" depart="189.00">
        <walk edges="-686886567#1 686886581#0 686886556#0 686886556#1 686886556#2 -686886558#1 686886560#0 686886563 686886545#2 686886545#1 686886545#0 686881194#1 686881194#0 -23903803#3 23903803#2 686878717#0 1026433810#1"/>
    </person>
    <person id="pedestrian_224" type="pedestrian_2_pedestrian" depart="216.00">
        <walk edges="354897447#3 -354897447#2 354897449 -354897447#0 354897459#0 354897465 354897459#6 -27282352#6 -27282352#7 -1103420587 -23903803#7 -23903803#6 23903803#5 -23903803#4 97170542#0 97170542#1 213159036#1 213159036#2 213159036#3 245809991#2 245809991#1 30900562#0 30900562#1 213159034#0 213159034#1 213159034#2 -30900695#1 -261959620#1 -1103420575#0 -1103420576#0 1103420576#1"/>
    </person>
    <person id="pedestrian_225" type="pedestrian_2_pedestrian" depart="225.00">
        <walk edges="1103420579#2 -1103420578#0 261959618 213159034#0 30900598#1 30900519#1 30900519#0 30900453#0 30900479#0 30900479#1 608254627#0 -39247570#0 39247570#1 213159029 1188035819 39247578#2 39247578#3 39247578#4 39247578#5 39247578#6 39247578#7 39247578#8 -41808951#3 41808951#4 41808951#5 -41808951#6"/>
    </person>
    <person id="pedestrian_226" type="pedestrian_2_pedestrian" depart="234.00">
        <walk edges="1024301354 1024301353#0 -1024301355#0 -23714277#4 23903796#1 23903796#0 1154235456#5 1154235456#4 437769494#5 437769494#4 437769494#3 437769494#2 437769494#1 437769494#0 30900422 1026436366 778526396#0"/>
    </person>
    <person id="pedestrian_229" type="pedestrian_2_pedestrian" depart="261.00">
        <walk edges="-354897459#6 -27282352#6 -27282352#7 -1103420587 -23903803#7 -23903803#6 23903803#5 23903803#4 97170542#0 97170542#1 213159036#1 213159036#2 213159036#3 245809991#2 30900606#1 30900606#2 30900606#3 30900606#4 30900471 30900479#3 30900479#2 30900479#1 274736667#1 274736667#0 -41808957#1 -41808957#0 39247568 -405494696#0 1097986495#1 1117761258"/>
    </person>
    <person id="pedestrian_231" type="pedestrian_2_pedestrian" depart="279.00">
        <walk edges="284653194#2 284653194#3 -405494696#0 39247568 584181260#0 584181260#1 584181260#2 584181260#3 584181260#4 608249482#2 608254627#1 39247570#0"/>
    </person>
    <person id="pedestrian_232" type="pedestrian_2_pedestrian" depart="288.00">
        <walk edges="686886551#1 686886551#0 686886548#1 686886545#0 686881194#1 686881194#0 97170542#0 97170542#1 213159036#1 213159036#2 213159036#3 245809991#2 30900606#1 30900606#2 30900606#3 30900606#4 30900471 30900479#3 30900479#2 608254627#0"/>
    </person>
    <person id="pedestrian_235" type="pedestrian_2_pedestrian" depart="315.00">
        <walk edges="-41808957#0 41808947#0 41808947#1 584181260#1 584181259 847972807#2"/>
    </person>
    <person id="pedestrian_238" type="pedestrian_2_pedestrian" depart="342.00">
        <walk edges="737809019#2 737809019#1 976016571#3 976016571#4 976016571#5 1076090375#0 1097986493#0 1003134364#0 1003134363#4 1003134363#3 1003134363#2 1003134363#1 1003134363#0 484412395#4 484412395#3 1092392565 1092384231 1092392569 1091733351 1091733352 219899012#1 219899012#0 1092392568 219899008#1 219899008#2"/>
    </person>
    <person id="pedestrian_239" type="pedestrian_2_pedestrian" depart="351.00">
        <walk edges="1024301353#1 1024301353#0 -1024301355#0 -23714277#4 23903796#1 23903796#0 1154235456#5 1154235456#4 437769494#5 437769494#4 437769494#3 437769494#2 437769494#1 437769494#0 30900422 1026436366 1026436364 30900479#4 30900479#3 30900479#2 30900479#1 30900479#0 30900453#0 30900519#0 30900519#1 30900598#1 213159034#0 213159034#1 213159034#2 1003134362#0 1003134362#1"/>
    </person>
    <person id="pedestrian_240" type="pedestrian_2_pedestrian" depart="360.00">
        <walk edges="30900227 437769494#1 437769494#2 437769494#3 437769494#4 437769494#5 1154235456#3 1154235456#2 686881214#0 1024301350#3 1024301351 1024301350#1 1024301352"/>
    </person>
    <person id="pedestrian_241" type="pedestrian_2_pedestrian" depart="369.00">
        <walk edges="30900479#1 30900479#2 30900479#3 30900471 30900606#4 30900606#3 30900606#2 30900606#1 245809991#2 213159036#3 213159036#2 213159036#1 97170542#1 97170542#0 686881194#0 686881194#1 686886545#0 686886545#1 686886545#2 686886563 686886560#0 686886558#1 686886556#2 686886556#1 686886556#0 686886581#0 686886581#1 686886587#0"/>
    </person>
    <person id="pedestrian_243" type="pedestrian_2_pedestrian" depart="387.00">
        <walk edges="983316290 213159012#1 39344197 39247570#4 -39247570#3 39247570#2 -39247570#1 -39247570#0 608254627#0 30900479#1 30900479#0 30900453#0 30900519#0 30900519#1 30900598#1 213159034#0 213159034#1 213159034#2 -30900695#1 -261959620#1 -1103420575#0 -1103420576#0 261959632"/>
    </person>
    <person id="pedestrian_246" type="pedestrian_2_pedestrian" depart="414.00">
        <walk edges="686881194#0 -23903803#3 23903803#2 -23903803#1 -23903803#0 1103420585 30900419#0 39247578#11 39247578#10 39247578#9 39247578#8 213159032#0 213159032#1 213159032#2 213159012#8 213159012#7"/>
    </person>
    <person id="pedestrian_247" type="pedestrian_2_pedestrian" depart="423.00">
        <walk edges="-23903803#5 23903803#5 -23903803#4 97170542#0 97170542#1 213159036#1 213159036#2 213159036#3 245809991#2 30900606#1 30900606#2 30900606#3 30900606#4 30900471 30900479#3 30900479#2 30900479#1 274736667#1 274736667#0 -41808957#1 -41808957#0 39247568 -405494696#0 284653194#3 284653194#2 284653194#1 284653194#0 1117815313"/>
    </person>
    <person id="pedestrian_248" type="pedestrian_2_pedestrian" depart="432.00">
        <walk edges="976026779#0 -27282358#0 -263820515#0 263820508#1"/>
    </person>
    <person id="pedestrian_249" type="pedestrian_2_pedestrian" depart="441.00">
        <walk edges="975979458#2 686886576#2 686886570#1 686886574#1 686886574#0 686886556#1 686886565"/>
    </person>
    <person id="pedestrian_250" type="pedestrian_2_pedestrian" depart="450.00">
        <walk edges="-1103420576#1 1103420575#2 -1103420575#0 -261959620#1 -30900695#1 213159034#2 213159034#1 213159034#0 30900598#1 30900519#1 30900519#0 30900453#0 30900479#0 30900479#1 608254627#0 -39247570#0 39247570#1 213159029 1188035819 39247578#2 39247578#3 39247578#4 39247578#5 39247578#6 39247578#7 39247578#8 41808951#2"/>
    </person>
    <person id="pedestrian_252" type="pedestrian_2_pedestrian" depart="468.00">
        <walk edges="1024301354 1024301353#0 -1024301355#0 -23714277#4 23903796#2 1154235456#0 1154235456#1 686881214#0 686881214#1 686881210#0 686881206#1 686881206#2 686881206#3 686881194#5 686881194#4 686881194#3 686886548#0 686886545#0 686881194#1 686881194#0 23903803#4 23903803#5 -23903803#6 23903803#7 -1103420587 -27282352#7 -27282352#6 354897459#6 -354897465 354897459#0 -354897447#0 -354897449 354897447#2 -354897451#0 354897454"/>
    </person>
    <person id="pedestrian_255" type="pedestrian_2_pedestrian" depart="495.00">
        <walk edges="686886572#2 686886556#0 686886556#1 686886556#2 686886556#3 686881208 686881206#2 686881206#1 686881210#0 686881214#1 686881214#0 1154235456#1 1154235456#0 23903796#2 -23714277#4 1024301355#0 1024301353#0"/>
    </person>
    <person id="pedestrian_257" type="pedestrian_2_pedestrian" depart="513.00">
        <walk edges="712264648 393517899 1003134362#0 213159034#2 213159034#1 213159034#0 30900562#1 30900562#0 245809991#1 245809991#2 213159036#3 213159036#2 213159036#1 97170542#1 97170542#0 686881194#0 686881194#1 686886545#0 686886545#1 686886545#2 686886563 686886560#0 686886558#1 686886556#2 686886574#0 686886574#1 686886570#1"/>
    </person>
    <person id="pedestrian_258" type="pedestrian_2_pedestrian" depart="522.00">
        <walk edges="1026436364 1026436365#1 1026436365#0 30900414#1 30900414#0 30900409 213159036#2 213159036#1 97170542#1 97170542#0 -23903803#4 23903803#5 -23903803#6 23903803#7 -1103420587 -27282352#7 -27282352#6 354897459#6 -354897465 354897459#0 -354897447#0 -354897449 354897447#2 -354897451#0 354897451#1"/>
    </person>
    <person id="pedestrian_263" type="pedestrian_2_pedestrian" depart="567.00">
        <walk edges="-1103420583#0 -1103420576#1 1103420575#2 -1103420575#0 -261959620#1 -30900695#1 213159034#2 213159034#1 213159034#0 30900562#1 30900562#0 245809991#1 245809991#2 213159036#3 213159036#2 213159036#1 97170542#1 97170542#0 686881194#0 686881194#1 686886545#0 686886548#0 686881194#3 686881194#4 686881196#2 686881196#1 754203892#1 754203892#0"/>
    </person>
    <person id="pedestrian_264" type="pedestrian_2_pedestrian" depart="576.00">
        <walk edges="686886574#1 686886574#0 686886556#2 686886558#1 686886560#0 686886563 686886545#3"/>
    </person>
    <person id="pedestrian_266" type="pedestrian_2_pedestrian" depart="594.00">
        <walk edges="686886574#1 686886574#0 686886556#2 686886558#1 686886560#0 686886563 686886545#2 686886545#1 686886545#0 686881194#1 686881194#0 97170542#0 97170542#1 213159036#1 213159036#2 213159036#3 245809991#2 30900606#1 30900606#2 30900606#3 30900606#4 30900471 30900479#3 30900479#2 608254627#0 608254627#1 608249482#2 584181260#4 584181260#3 584181260#2 584181260#1 584181259 847976227 847976228"/>
    </person>
    <person id="pedestrian_268" type="pedestrian_2_pedestrian" depart="612.00">
        <walk edges="-259886131#1 -259886131#0 -27282352#7 -1103420587 -23903803#7 -23903803#6 23903803#5 -23903803#4 97170542#0 97170542#1 213159036#1 213159036#2 213159036#3 245809991#2 30900606#1 30900606#2 30900606#3 30900606#4 30900471 30900479#3 30900479#2 30900479#1 274736667#1 274736667#0 -41808957#1 -41808957#0 584181260#0"/>
    </person>
    <person id="pedestrian_270" type="pedestrian_2_pedestrian" depart="630.00">
        <walk edges="23714277#4 23903796#2 1154235456#0 1154235456#1 686881214#0 686881214#1 686881210#0 686881206#1 686881206#2 686881206#3 686881194#5 686881194#4 686881194#3 686886548#0 686886545#0 686881194#1 686881194#0 23903803#4 354897495 27282359#1"/>
    </person>
    <person id="pedestrian_271" type="pedestrian_2_pedestrian" depart="639.00">
        <walk edges="1024301353#1 1024301353#0 -1024301355#0 -23714277#4 23903796#2 1154235456#0 1154235456#1 686881214#0 686881214#1 686881210#0 686881206#1 686881206#2 686881208 686886556#3 686886556#2 686886574#0 686886574#1 686886570#1 686886570#2"/>
    </person>
    <person id="pedestrian_272" type="pedestrian_2_pedestrian" depart="648.00">
        <walk edges="213159012#7 213159012#6 213159012#5 213159012#4 213159012#3 213159012#2 213159012#1 39247575 584181260#5 584181260#4 584181260#3 584181260#2 41808947#1 41808947#0 -41808957#1"/>
    </person>
    <person id="pedestrian_277" type="pedestrian_2_pedestrian" depart="693.00">
        <walk edges="-30900419#5 30900419#4 737809019#4 976016571#0 1154235456#4 1154235456#3 1154235456#2 686881214#0 686881214#1 686881210#0 686881206#1 686881206#2 686881208 686886556#3 -686886558#1 686886560#0 -686886560#1"/>
    </person>
    <person id="pedestrian_279" type="pedestrian_2_pedestrian" depart="711.00">
        <walk edges="-778526130 686879295#2 686878639 -686878717#0"/>
    </person>
    <person id="pedestrian_280" type="pedestrian_2_pedestrian" depart="720.00">
        <walk edges="-259886132#1 -259886131#1 -259886131#0 -27282352#6 354897459#6 354897465 354897459#0 354897447#0"/>
    </person>
    <person id="pedestrian_281" type="pedestrian_2_pedestrian" depart="729.00">
        <walk edges="-712263844 23903803#2 23903803#3 686881194#0 686881194#1 686886545#0 686886545#1 686886545#2 686886563 686886560#0 686886558#1 686886556#2 686886556#1 686886556#0 686886581#0 686886581#1 686886581#2 686886581#3 686891010#0"/>
    </person>
    <person id="pedestrian_282" type="pedestrian_2_pedestrian" depart="738.00">
        <walk edges="686886563 686886545#2 686886545#1 686886545#0 686881194#1 686881194#0 23903803#4 23903803#5 -23903803#6 23903803#7 -1103420587 -27282352#7 -259886131#0 259886131#1 -259886132#1"/>
    </person>
    <person id="pedestrian_285" type="pedestrian_2_pedestrian" depart="765.00">
        <walk edges="778526131 670263784 437769494#2 437769494#1 437769494#0 30900422 1026436366 778526396#0 778526396#1 1026436361#2 30900414#1"/>
    </person>
    <person id="pedestrian_286" type="pedestrian_2_pedestrian" depart="774.00">
        <walk edges="225420970#4 213159012#3 213159035#0 213159035#1 213159035#2 39247578#2 1188035819 213159029 -39247570#1 -39247570#0 220299970#1 675706046"/>
    </person>
    <person id="pedestrian_287" type="pedestrian_2_pedestrian" depart="783.00">
        <walk edges="686881204 754203891#2 686881200 686881194#6 686886556#3 686886556#2 686886556#1 686886556#0 686886581#0 686886581#1 686886581#2 686886581#3 686887735#2 -354897503#1 354897503#2 -354897511"/>
    </person>
    <person id="pedestrian_288" type="pedestrian_2_pedestrian" depart="792.00">
        <walk edges="-263820512#1 263820512#1 -263820503#1 686891010#4 686891010#5 686886578#1 686886587#1 686886587#0 686886581#1 686886581#0 686886556#0 686886556#1 686886556#2 -686886558#1 686886560#0 686886563 686886545#2 686886545#1 686886545#0 686881194#1 686881194#0 97170542#0 97170542#1 213159036#1 213159036#2 213159036#3 245809991#2 30900606#1 30900606#2 30900606#3 30900606#4 30900471 30900479#3 30900479#2 608254627#0 -39247570#0 39247570#1 213159029 1188035819 39247578#2 213159035#2 213159035#1 213159020"/>
    </person>
    <person id="pedestrian_289" type="pedestrian_2_pedestrian" depart="801.00">
        <walk edges="213159012#8 213159012#7 213159012#6 213159012#5 213159012#4 213159012#3 213159035#0 213159035#1 213159035#2 39247578#2 1188035819 213159029 -39247570#1 -39247570#0 220299970#1 220299970#2"/>
    </person>
    <person id="pedestrian_290" type="pedestrian_2_pedestrian" depart="810.00">
        <walk edges="41808954 41808957#0 41808957#1 274736667#0 274736667#1 30900479#1 30900479#2 30900479#3 30900471 30900606#4 30900606#3 30900606#2 30900606#1 245809991#2 213159036#3 213159036#2 213159036#1 97170542#1 97170542#0 23903803#4 23903803#5 -23903803#6 23903803#7 686887735#0 -354897503#5 -354897503#4 354897503#3"/>
    </person>
    <person id="pedestrian_291" type="pedestrian_2_pedestrian" depart="819.00">
        <walk edges="976024756 -27282358#1 -27282358#0 -263820515#0"/>
    </person>
    <person id="pedestrian_293" type="pedestrian_2_pedestrian" depart="837.00">
        <walk edges="686886567#0 686886567#1 686886581#0 686886556#0 686886556#1 686886556#2 686886556#3 686881208 686881206#2 686881206#1 686881210#0 686881214#1 686881214#0 1154235456#2 1154235456#3 1154235456#4 976016571#0 737809019#4 976016571#2 976016571#3 976016571#4 976016571#5 1076090375#0 1097986493#0 1003134364#0 1003134363#4 1003134363#3 1003134363#2 1003134363#1"/>
    </person>
    <person id="pedestrian_294" type="pedestrian_2_pedestrian" depart="846.00">
        <walk edges="-354897511 354897503#3 354897503#4 -354897503#5 686887735#0 -23903803#7 -23903803#6 23903803#5 -23903803#4 97170542#0 97170542#1 213159036#1 213159036#2 213159036#3 245809991#2 30900606#1 30900606#2 30900606#3 30900606#4 30900471 30900479#3 30900479#2 608254627#0 -39247570#0 39247570#1 213159029 1188035819 39247578#2 213159035#2 213159035#1 213159035#0"/>
    </person>
    <person id="pedestrian_296" type="pedestrian_2_pedestrian" depart="864.00">
        <walk edges="1003134363#2 1003134363#3 1003134363#4 1003134364#0 1097986493#0 1076090375#0 976016571#5 976016571#4 976016571#3 976016571#2 737809019#4 976016571#0 1154235456#4 1154235456#3 1154235456#2 686881214#0 686881214#1 686881210#0 686881206#1 686881206#2 686881206#3 686881200 754203891#2 754203891#1 754203891#0 754203890"/>
    </person>
    <person id="pedestrian_297" type="pedestrian_2_pedestrian" depart="873.00">
        <walk edges="213159032#2 213159032#1 213159032#0 39247578#8 39247578#9 39247578#10 39247578#11 30900419#1 737809019#4 976016571#0 1154235456#4 1154235456#3 1154235456#2 686881214#0 686881214#1 686881210#0 686881206#1 686881206#2 686881208 686886556#3 686886556#2 686886556#1 686886565"/>
    </person>
    <person id="pedestrian_298" type="pedestrian_2_pedestrian" depart="882.00">
        <walk edges="27282359#1 354897495 -23903803#4 97170542#0 97170542#1 213159036#1 213159036#2 213159036#3 245809991#2 30900606#1 30900606#2 30900606#3 30900606#4 30900471 30900479#3 30900479#2 608254627#0 220299970#1 -220299970#2"/>
    </person>
    <person id="pedestrian_299" type="pedestrian_2_pedestrian" depart="891.00">
        <walk edges="998027138 -23714280#5 670263784 437769494#2 437769494#1 437769494#0 -1103420584#0 -23903803#0 -23903803#1 23903803#2 23903803#3 686881194#0 686881194#1 686886545#0 686886548#1"/>
    </person>
    <person id="pedestrian_2100" type="pedestrian_2_pedestrian" depart="900.00">
        <walk edges="975979452 686886587#2 686886587#1 686886587#0 686886581#1 686886581#0 686886556#0 686886556#1 686886556#2 686886556#3 686881194#6 686881200 754203891#2 754203891#1"/>
    </person>
    <person id="pedestrian_2101" type="pedestrian_2_pedestrian" depart="909.00">
        <walk edges="686886556#0 686886581#0 686886581#1 686886581#2 686886581#3 686887735#2 686887735#1 686887735#0 -1103420587 -27282352#7 -27282352#6 354897459#6 -354897465"/>
    </person>
    <person id="pedestrian_2105" type="pedestrian_2_pedestrian" depart="945.00">
        <walk edges="1024301353#1 1024301353#0 -1024301355#0 -23714277#4 23903796#1 23903796#0 1154235456#5 1154235456#4 437769494#5 437769494#4 437769494#3 437769494#2 437769494#1 437769494#0 30900422 1026436366 1026436364 30900479#4 30900479#3 30900479#2 608254627#0 220299970#1 675706046"/>
    </person>
    <person id="pedestrian_2106" type="pedestrian_2_pedestrian" depart="954.00">
        <walk edges="213159036#3 245809991#2 30900606#1 30900606#2 30900606#3 30900606#4 30900471 30900479#3 30900479#2 608254627#0 -39247570#0 39247570#1 213159029 1188035819 39247578#2 213159035#2 213159035#1 213159035#0 213159012#3 213159012#4 213159012#5 213159012#6 213159012#7"/>
    </person>
    <person id="pedestrian_2108" type="pedestrian_2_pedestrian" depart="972.00">
        <walk edges="284653194#1 284653194#0 1097986493#2 1076090375#0 976016571#5 572478318#0 572478319#1 572478319#0 572478320#1 41808951#0"/>
    </person>
    <person id="pedestrian_2109" type="pedestrian_2_pedestrian" depart="981.00">
        <walk edges="-354897454 -354897451#0 -354897447#2 354897449 -354897447#0 354897459#0 354897465 354897459#6 -27282352#6 -27282352#7 -1103420587 -23903803#7 -23903803#6 23903803#5 -23903803#4 97170542#0 97170542#1 213159036#1 213159036#2 30900409 30900414#0 30900414#1 1026436365#0 1026436365#1 1026436363"/>
    </person>
    <person id="pedestrian_2110" type="pedestrian_2_pedestrian" depart="990.00">
        <walk edges="975979452 686886587#2 686886587#1 686886587#0 686886581#1 686886581#0 686886556#0 686886556#1 686886556#2 -686886558#1 -686886560#0 686886563 686886545#2 686886545#1 686886545#0 686881194#1 686881194#0 97170542#0 97170542#1 213159036#1 213159036#2 213159036#3 245809991#2 245809991#1 30900562#0 30900562#1 30900598#1 30900519#1 30900519#0 30900453#0"/>
    </person>
    <person id="pedestrian_2112" type="pedestrian_2_pedestrian" depart="1008.00">
        <walk edges="-23903803#0 41808953 1026436367#0 1026436367#1 1026436361#1 1026436361#2 1026436362 30900606#4 30900471 30900479#3 30900479#2 30900479#1 30900479#0"/>
    </person>
    <person id="pedestrian_2113" type="pedestrian_2_pedestrian" depart="1017.00">
        <walk edges="261959618 213159034#0 30900562#1 30900562#0 245809991#1 245809991#2 213159036#3 213159036#2 213159036#1 97170542#1 97170542#0 686881194#0 686881194#1 686886545#0 686886545#1 686886545#2 686886563 686886560#0 686886558#0"/>
    </person>
    <person id="pedestrian_2114" type="pedestrian_2_pedestrian" depart="1026.00">
        <walk edges="-354897459#2 354897459#3 354897459#4 354897459#5 354897459#6 -27282352#6 -27282352#7 -1103420587 -23903803#7 -23903803#6 23903803#5 -23903803#4 -23903803#3 23903803#2 -23903803#1 -23903803#0 1103420585 437769494#0 437769494#1 437769494#2 437769494#3 437769494#4 -30900337#1 975927445#1"/>
    </person>
    <person id="pedestrian_2115" type="pedestrian_2_pedestrian" depart="1035.00">
        <walk edges="-261959630#1 213159036#1 97170542#1 97170542#0 23903803#4 23903803#5 -23903803#6 23903803#7 686887735#0 -354897503#5"/>
    </person>
    <person id="pedestrian_2116" type="pedestrian_2_pedestrian" depart="1044.00">
        <walk edges="30900598#1 30900562#1 30900562#0 245809991#1 245809991#2 213159036#3 213159036#2 213159036#1 97170542#1 97170542#0 -23903803#4 23903803#5 -23903803#6 23903803#7 686887735#0 -354897503#5 354897503#5"/>
    </person>
    <person id="pedestrian_2117" type="pedestrian_2_pedestrian" depart="1053.00">
        <walk edges="-975927445#0 975927445#1 30900337#1 437769494#5 1154235456#4 976016571#0 737809019#4 -30900419#4"/>
    </person>
    <person id="pedestrian_2118" type="pedestrian_2_pedestrian" depart="1062.00">
        <walk edges="686886581#0 686886556#0 686886556#1 686886556#2 -686886558#1 686886560#0 686886563 686886545#2 686886545#1 686886545#0 686881194#1 686881194#0 97170542#0 97170542#1 213159036#1 213159036#2 213159036#3 245809991#2 245809991#1 30900562#0 30900562#1 213159034#0 213159034#1 213159034#2 1003134362#0 1003134362#1"/>
    </person>
    <person id="pedestrian_2120" type="pedestrian_2_pedestrian" depart="1080.00">
        <walk edges="213159012#4 213159012#3 213159035#0 213159035#1 213159035#2 39247578#2 1188035819 213159029 -39247570#1 -39247570#0 608254627#0 30900479#1 30900479#0"/>
    </person>
    <person id="pedestrian_2122" type="pedestrian_2_pedestrian" depart="1098.00">
        <walk edges="-41808951#2 39247578#8 213159032#0 213159032#1 213159032#2 213159012#8 213159012#7 213159012#6 213159012#5 213159012#4 213159012#3 213159012#2 213159012#1 39247575 584181260#5 584181260#4 584181260#3 584181260#2 41808947#1"/>
    </person>
    <person id="pedestrian_2124" type="pedestrian_2_pedestrian" depart="1116.00">
        <walk edges="354897503#2 354897503#3 354897503#4 -354897503#5 686887735#0 -23903803#7 -23903803#6 23903803#5 -23903803#4 97170542#0 97170542#1 213159036#1 213159036#2 30900409 30900414#0 30900414#1 1026436365#0 1026436365#1"/>
    </person>
    <person id="pedestrian_2126" type="pedestrian_2_pedestrian" depart="1134.00">
        <walk edges="-259886132#2 -259886131#0 -27282352#7 -1103420587 -23903803#7 -23903803#6 23903803#5 -23903803#4 97170542#0 97170542#1 213159036#1 213159036#2 213159036#3 245809991#2 30900606#1 30900606#2 30900606#3 30900606#4 30900471 30900479#3 30900479#2 30900479#1 274736667#1 274736667#0 -41808957#1 -41808957#0 39247568 -405494696#0 284653194#3 284653194#2 284653194#1 284653194#0 1097986493#2 1097986493#0 1003134364#0 1003134363#4 1003134363#3 1003134363#2 1003134363#1 1003134363#0 484412395#4 484412395#3 1092392565 1092384231 1092392569 1091733351 1091733352 219899012#1 219899012#0 1092392568 219899008#1"/>
    </person>
    <person id="pedestrian_2129" type="pedestrian_2_pedestrian" depart="1161.00">
        <walk edges="1024301353#1 1024301353#0 -1024301355#0 -23714277#4 23903796#2 1154235456#0 1154235456#1 686881214#0 686881214#1 686881210#0 686881206#1 686881206#2 686881206#3 686881200 754203891#2 686881204 754203892#0 754203895"/>
    </person>
    <person id="pedestrian_2130" type="pedestrian_2_pedestrian" depart="1170.00">
        <walk edges="686886576#1 686886576#0"/>
    </person>
    <person id="pedestrian_2131" type="pedestrian_2_pedestrian" depart="1179.00">