<?xml version="1.0" encoding="UTF-8"?>

<!-- generated on 2024-04-22 02:03:20.387326 by randomTrips.py v1_19_0+0000-baa66a0f364
<configuration>
    <net-file value="../sumo_project\osm.net.xml.gz"/>
    <additional-files value="../sumo_project\osm.poly.xml.gz"/>
    <output-trip-file value="../sumo_project\trips\osm.passenger_2.trips.xml"/>
    <route-file value="../sumo_project\trips\osm.passenger_2.rou.xml"/>
    <prefix value="passenger_2"/>
    <vehicle-class value="passenger"/>
    <min-distance value="10.0"/>
    <remove-loops value="True"/>
    <validate value="True"/>
    <end value="57600.0"/>
    <insertion-rate value="400.0"/>
</configuration>
-->

<!-- generated on 2024-04-22 02:03:19 by Eclipse SUMO duarouter Version 1.19.0
<configuration xmlns:xsi="http://www.w3.org/2001/XMLSchema-instance" xsi:noNamespaceSchemaLocation="http://sumo.dlr.de/xsd/duarouterConfiguration.xsd">

    <input>
        <net-file value="../sumo_project\osm.net.xml.gz"/>
        <additional-files value="../sumo_project\osm.poly.xml.gz"/>
        <route-files value="../sumo_project\trips\osm.passenger_2.trips.xml"/>
    </input>

    <output>
        <output-file value="../sumo_project\trips\osm.passenger_2.rou.xml"/>
        <alternatives-output value="NUL"/>
    </output>

    <processing>
        <remove-loops value="true"/>
    </processing>

    <time>
        <begin value="0.0"/>
        <end value="57600.0"/>
    </time>

    <report>
        <no-warnings value="true"/>
        <ignore-errors value="true"/>
        <no-step-log value="true"/>
    </report>

</configuration>
-->

<routes xmlns:xsi="http://www.w3.org/2001/XMLSchema-instance" xsi:noNamespaceSchemaLocation="http://sumo.dlr.de/xsd/routes_file.xsd">
    <vType id="passenger_2_passenger" vClass="passenger"/>
    <vehicle id="passenger_20" type="passenger_2_passenger" depart="0.00">
        <route edges="23714286#0 23714286#1 23714286#2 23714286#3 -23714284 187718053#0 187718053#1"/>
    </vehicle>
    <vehicle id="passenger_21" type="passenger_2_passenger" depart="9.00">
        <route edges="-27282358#11 -27282358#10 -27282358#9 -27282358#8 -188608390#5 -188608390#4 -188608390#3 -188608390#2 -188608390#1 -23786199#3 -23786199#2 -23786199#1 -23786199#0 942395523#0 189253789#0 -23714318#2 -23714318#1 -23714318#0 23714284 260136572#0 260136572#1 260136572#3 260136572#4 260136572#5"/>
    </vehicle>
    <vehicle id="passenger_22" type="passenger_2_passenger" depart="18.00">
        <route edges="260136572#5 213159005#2 213159005#4 213159005#5 213159005#6 517419312#4 517419312#0 517419312#1 517419312#2 -405494696#2 -405494696#0 -670297118 -584181253 584181257 23714295#2 23714295#3 23714295#4 23714319#0"/>
    </vehicle>
    <vehicle id="passenger_23" type="passenger_2_passenger" depart="27.00">
        <route edges="27282384#4 27282384#5 27282384#6 27282384#7 27282358#0 27282358#1 27282358#2 27282358#3 27282358#5 27282358#6 27282358#8 27282358#9 27282358#10 27282358#11 27282358#12 27282358#13 27282358#14 27282358#15 150480531#0 150480531#1 932432705 23714276#5 932432707 -23714277#4"/>
    </vehicle>
    <vehicle id="passenger_24" type="passenger_2_passenger" depart="36.00">
        <route edges="-987217843#0 -213159004#8 -213159004#6 -213159004#5 -213159004#4 -213159004#3 -213159004#1 -213159004#0 23714276#1 932432702 23714280#0 23714280#1 23714280#2 23714280#3 23714280#4 23714280#5 23714280#6 23714280#7 -27282359#8 -27282359#7 -27282359#6 -27282359#5 -1026432878 -1026432877#0 -187718053#2"/>
    </vehicle>
    <vehicle id="passenger_25" type="passenger_2_passenger" depart="45.00">
        <route edges="-260136572#3 -260136572#1 -260136572#0 -23714284 23714318#0 23714318#1 23714318#2 189253787#1 942395523#2 942395523#3 942395523#4 942395523#5 942395523#6 942395523#7 23786199#0 23786199#1 23786199#2 23786199#3 188608390#1 188608390#2 188608390#3 188608390#4"/>
    </vehicle>
    <vehicle id="passenger_26" type="passenger_2_passenger" depart="54.00">
        <route edges="-187718053#2 -187718053#1 -187718053#0 23714284 -23714286#3 -23714286#2 -23714286#1 -23714286#0 23786206#0 23786206#1"/>
    </vehicle>
    <vehicle id="passenger_27" type="passenger_2_passenger" depart="63.00">
        <route edges="-23714286#3 -23714286#2 -23714286#1 -23714286#0 -23714280#7 -23714280#6 -23714280#5 -23714280#4 -23714280#3 -23714280#2 -23714280#1 -23714280#0 932432703 23714276#3 23714276#4 23714276#5 23714276#6 23714276#0 213159004#0 213159004#1 213159004#3 213159004#4"/>
    </vehicle>
    <vehicle id="passenger_29" type="passenger_2_passenger" depart="81.00">
        <route edges="27282358#15 150480531#0 150480531#1 932432705 23714276#5 23714276#6 23714276#0 23714276#1 932432702 23714280#0 23714280#1 23714280#2 23714280#3 23714280#4 23714280#5 23714280#6 23714280#7 -27282359#8 -27282359#7 -27282359#6 -27282359#5 -1026432878"/>
    </vehicle>
    <vehicle id="passenger_210" type="passenger_2_passenger" depart="90.00">
        <route edges="-27282358#14 -27282358#13 -27282358#12 -27282358#11 -27282358#10 -27282358#9 -27282358#8 -188608390#5 -188608390#4 -188608390#3 -188608390#2 -188608390#1 -23786199#3"/>
    </vehicle>
    <vehicle id="passenger_211" type="passenger_2_passenger" depart="99.00">
        <route edges="-27282359#4 -27282359#3 -27282359#2 -27282359#1 -27282359#0 -23786199#3 -23786199#2 -23786199#1 -23786199#0 942395523#0 189253789#0 -23714318#2 -23714318#1 -23714318#0"/>
    </vehicle>
    <vehicle id="passenger_212" type="passenger_2_passenger" depart="108.00">
        <route edges="932432702 23714280#0 23714280#1 23714280#2 23714280#3 23714280#4 23714280#5 23714280#6 23714280#7 -27282359#8 -27282359#7 -27282359#6 -27282359#5 -27282359#4 -27282359#3"/>
    </vehicle>
    <vehicle id="passenger_213" type="passenger_2_passenger" depart="117.00">
        <route edges="-23714280#1"/>
    </vehicle>
    <vehicle id="passenger_214" type="passenger_2_passenger" depart="126.00">
        <route edges="27282359#2 27282359#3 27282359#4 27282359#5 27282359#6 27282359#7 27282359#8 -23714280#7 -23714280#6 -23714280#5 -23714280#4 -23714280#3 -23714280#2"/>
    </vehicle>
    <vehicle id="passenger_215" type="passenger_2_passenger" depart="135.00">
        <route edges="27282358#15 150480531#0 150480531#1 932432705 23714276#5 23714276#6 23714276#0 23714276#1 932432702 23714280#0 23714280#1 23714280#2 23714280#3 23714280#4 23714280#5 23714280#6 23714280#7 23714286#0 23714286#1 23714286#2 23714286#3 260136572#0 260136572#1 260136572#3 260136572#4"/>
    </vehicle>
    <vehicle id="passenger_216" type="passenger_2_passenger" depart="144.00">
        <route edges="213159004#3 213159004#4 213159004#5 213159004#6 213159004#7 987217843#0 -260136572#5 -260136572#4 -260136572#3 -260136572#1 -260136572#0 -23714286#3 -23714286#2 -23714286#1 -23714286#0 -23714280#7 -23714280#6 -23714280#5 -23714280#4 -23714280#3 -23714280#2 -23714280#1 -23714280#0 932432703 23714276#3 932432704 932432705"/>
    </vehicle>
    <vehicle id="passenger_217" type="passenger_2_passenger" depart="153.00">
        <route edges="-27282384#4 -27282384#3 -27282384#2 -27282384#1 -27282384#0 -27282352#7 -27282352#6 -27282352#5 -27282352#4 -27282352#3 -27282352#2 -27282352#1 -27282352#0 942395523#7 942395523#0 189253789#0 -23714318#2 -23714318#1 -23714318#0 23714284 -23714286#3 -23714286#2 -23714286#1 -23714286#0 -23714280#7 -23714280#6 -23714280#5 -23714280#4 -23714280#3 -23714280#2 -23714280#1 -23714280#0 932432703 23714276#3 23714276#4 23714276#5 23714276#6 23714276#0 213159004#0 213159004#1 213159004#3 213159004#4 213159004#5 213159004#6"/>
    </vehicle>
    <vehicle id="passenger_218" type="passenger_2_passenger" depart="162.00">
        <route edges="27282358#8 27282358#9 27282358#10 27282358#11 27282358#12 27282358#13 27282358#14 27282358#15 150480531#0 150480531#1 932432705 23714276#5 23714276#6 23714276#0 23714276#1 932432702 23714280#0 23714280#1 23714280#2 23714280#3 23714280#4 23714280#5 23714280#6"/>
    </vehicle>
    <vehicle id="passenger_220" type="passenger_2_passenger" depart="180.00">
        <route edges="-23786206#0 -27282359#8 -27282359#7 -27282359#6 -27282359#5 -27282359#4 -27282359#3 -27282359#2 -27282359#1 -27282359#0 188608390#1 188608390#2 188608390#3 188608390#4"/>
    </vehicle>
    <vehicle id="passenger_221" type="passenger_2_passenger" depart="189.00">
        <route edges="-27282352#0 942395523#7 23786199#0 23786199#1 23786199#2 23786199#3 27282359#0 27282359#1 27282359#2 27282359#3 27282359#4 187816766#0 187816766#1 187816766#2 187816766#3 187816766#4 187816766#5 187816766#6 -27282358#15 -27282358#14"/>
    </vehicle>
    <vehicle id="passenger_222" type="passenger_2_passenger" depart="198.00">
        <route edges="-213159004#8 -213159004#6 -213159004#5 -213159004#4 -213159004#3 -213159004#1 -213159004#0 23714276#1 23714276#2 23714276#3 932432704 -150480531#1 -150480531#0 -27282358#15 -27282358#14 -27282358#13 -27282358#12 -27282358#11 -27282358#10 -27282358#9 -27282358#8 -27282358#6 -27282358#5 -27282358#3 -27282358#2 -27282358#1 -27282358#0 -27282384#7 -27282384#6 -27282384#5 -27282384#4 -27282384#3 -27282384#2 -27282384#1 -27282384#0 -27282352#7 -27282352#6 -27282352#5 -27282352#4 -27282352#3 -27282352#2 -27282352#1"/>
    </vehicle>
    <vehicle id="passenger_223" type="passenger_2_passenger" depart="207.00">
        <route edges="-23714280#3 -23714280#2 -23714280#1 -23714280#0 932432703 23714276#3 932432704 -150480531#1 -150480531#0 -27282358#15 -27282358#14 -27282358#13 -27282358#12 -27282358#11"/>
    </vehicle>
    <vehicle id="passenger_224" type="passenger_2_passenger" depart="216.00">
        <route edges="23714286#0 23714286#1 23714286#2 23714286#3 -23714284 23714318#0 23714318#1 23714318#2 189253787#1 942395523#2 942395523#3 942395523#4 942395523#5 942395523#6 942395523#7 23786199#0 23786199#1 23786199#2 23786199#3 188608390#1 188608390#2 188608390#3 188608390#4 188608390#5 -27282358#6 -27282358#5 -27282358#3 -27282358#2 -27282358#1 -27282358#0 -27282384#7 -27282384#6 -27282384#5 -27282384#4 -27282384#3 -27282384#2 -27282384#1"/>
    </vehicle>
    <vehicle id="passenger_225" type="passenger_2_passenger" depart="225.00">
        <route edges="-27282384#2 -27282384#1 -27282384#0 -27282352#7 -27282352#6 -27282352#5 -27282352#4 -27282352#3 -27282352#2 -27282352#1 -27282352#0 942395523#7 942395523#0 189253789#0 -23714318#2 -23714318#1 -23714318#0 23714284 260136572#0"/>
    </vehicle>
    <vehicle id="passenger_226" type="passenger_2_passenger" depart="234.00">
        <route edges="-27282358#1 -27282358#0 -27282384#7 -27282384#6 -27282384#5 -27282384#4 -27282384#3 -27282384#2 -27282384#1 -27282384#0 -27282352#7 -27282352#6 -27282352#5 -27282352#4 -27282352#3 -27282352#2 -27282352#1 -27282352#0 942395523#7 942395523#0 942395523#1 942395523#2 932432700 -23792272 584181258 23714295#4 23714295#5 23714295#0 23714307 584181257"/>
    </vehicle>
    <vehicle id="passenger_227" type="passenger_2_passenger" depart="243.00">
        <route edges="-23714286#2 -23714286#1 -23714286#0 -23714280#7 -23714280#6 -23714280#5 -23714280#4 -23714280#3"/>
    </vehicle>
    <vehicle id="passenger_228" type="passenger_2_passenger" depart="252.00">
        <route edges="-23714319#1 -23714319#0 23714295#5 -23714286#5 -23714286#4 260136572#0 260136572#1 260136572#3"/>
    </vehicle>
    <vehicle id="passenger_229" type="passenger_2_passenger" depart="261.00">
        <route edges="-23714319#0 23714295#5 23714295#0 23714295#1 23714295#2 584181256 23792272 932432701 942395523#4 942395523#5 942395523#6 942395523#7 23786199#0 23786199#1 23786199#2 23786199#3 188608390#1 188608390#2 188608390#3 188608390#4 188608390#5 -27282358#6 -27282358#5 -27282358#3 -27282358#2 -27282358#1 -27282358#0 -27282384#7 -27282384#6 -27282384#5 -27282384#4"/>
    </vehicle>
    <vehicle id="passenger_231" type="passenger_2_passenger" depart="279.00">
        <route edges="213159005#2 213159005#4 213159005#5 213159005#6 517419312#4 517419312#0 517419312#1 517419312#2 -405494696#2 -405494696#0 -670297118 -584181253 584181257 23714295#2 584181256 23792272 932432701 942395523#4 942395523#5 942395523#6 942395523#7 23786199#0"/>
    </vehicle>
    <vehicle id="passenger_232" type="passenger_2_passenger" depart="288.00">
        <route edges="-27282359#1 -27282359#0 -23786199#3 -23786199#2 -23786199#1 -23786199#0 942395523#0 942395523#1 942395523#2 942395523#3 942395523#4 942395523#5 942395523#6 27282352#0 27282352#1 27282352#2 27282352#3 27282352#4 27282352#5 27282352#6 27282352#7 27282352#8"/>
    </vehicle>
    <vehicle id="passenger_233" type="passenger_2_passenger" depart="297.00">
        <route edges="-27282352#0 942395523#7 23786199#0 23786199#1 23786199#2 23786199#3 188608390#1"/>
    </vehicle>
    <vehicle id="passenger_234" type="passenger_2_passenger" depart="306.00">
        <route edges="-27282358#8 -27282358#6 -27282358#5 -27282358#3 -27282358#2 -27282358#1"/>
    </vehicle>
    <vehicle id="passenger_235" type="passenger_2_passenger" depart="315.00">
        <route edges="-260136572#1 -260136572#0 23714286#4 23714286#5 23714295#0 23714295#1 23714295#2 584181256 584181258"/>
    </vehicle>
    <vehicle id="passenger_236" type="passenger_2_passenger" depart="324.00">
        <route edges="27282384#1 27282384#2 27282384#3 27282384#4 27282384#5 27282384#6 27282384#7 27282358#0 27282358#1 27282358#2 27282358#3 27282358#5 27282358#6 27282358#8"/>
    </vehicle>
    <vehicle id="passenger_238" type="passenger_2_passenger" depart="342.00">
        <route edges="-405494696#2 -405494696#0 -670297118 -584181253 584181257 23714295#2 23714295#3 23714295#4 23714319#0 23714319#1 187718053#0 187718053#1 187718053#2"/>
    </vehicle>
    <vehicle id="passenger_239" type="passenger_2_passenger" depart="351.00">
        <route edges="-27282358#0 -27282384#7 -27282384#6 -27282384#5 -27282384#4 -27282384#3 -27282384#2 -27282384#1 -27282384#0 -27282352#7 -27282352#6 -27282352#5 -27282352#4"/>
    </vehicle>
    <vehicle id="passenger_240" type="passenger_2_passenger" depart="360.00">
        <route edges="213159005#4 213159005#5 213159005#6 517419312#4 517419312#0 517419312#1 517419312#2 -405494696#2 -405494696#0 -670297118 -584181253 584181257 23714295#2 584181256 23792272 932432701 942395523#4 942395523#5 942395523#6 942395523#7 23786199#0 23786199#1 23786199#2 23786199#3 188608390#1 188608390#2 188608390#3 188608390#4 188608390#5 -27282358#6 -27282358#5 -27282358#3 -27282358#2 -27282358#1 -27282358#0"/>
    </vehicle>
    <vehicle id="passenger_241" type="passenger_2_passenger" depart="369.00">
        <route edges="232805395#1 517419312#1 517419312#2 -405494696#2 -405494696#0 -670297118 -584181253 584181257 23714295#2 584181256 23792272 932432701 942395523#4 942395523#5 942395523#6 27282352#0 27282352#1 27282352#2 27282352#3 27282352#4 27282352#5 27282352#6 27282352#7 27282352#8 27282384#1 27282384#2 27282384#3 27282384#4 27282384#5 27282384#6"/>
    </vehicle>
    <vehicle id="passenger_242" type="passenger_2_passenger" depart="378.00">
        <route edges="-405494696#0 -670297118 -584181253 584181257 23714295#2 23714295#3 23714295#4 23714295#5 -23714286#5 -23714286#4 260136572#0 260136572#1 260136572#3 260136572#4"/>
    </vehicle>
    <vehicle id="passenger_243" type="passenger_2_passenger" depart="387.00">
        <route edges="992341627#3 942395523#6 942395523#7 23786199#0 23786199#1 23786199#2 23786199#3 188608390#1 188608390#2 188608390#3 188608390#4 188608390#5"/>
    </vehicle>
    <vehicle id="passenger_244" type="passenger_2_passenger" depart="396.00">
        <route edges="-23714280#1 -23714280#0 932432703 23714276#3 932432704 -150480531#1 -150480531#0 -27282358#15 -27282358#14 -27282358#13 -27282358#12 -27282358#11 -27282358#10 -27282358#9 -27282358#8 -188608390#5 -188608390#4"/>
    </vehicle>
    <vehicle id="passenger_245" type="passenger_2_passenger" depart="405.00">
        <route edges="23714280#5 23714280#6 23714280#7 23714286#0 23714286#1 23714286#2 23714286#3 -23714284"/>
    </vehicle>
    <vehicle id="passenger_246" type="passenger_2_passenger" depart="414.00">
        <route edges="27282358#11 27282358#12 27282358#13 27282358#14 27282358#15 150480531#0 150480531#1 932432705 23714276#5 23714276#6 23714276#0 23714276#1 932432702 23714280#0 23714280#1 23714280#2 23714280#3 23714280#4 23714280#5 23714280#6 23714280#7 23714286#0 23714286#1 23714286#2 23714286#3 23714286#4 23714286#5 23714295#0 23714307 584181253 670297118"/>
    </vehicle>
    <vehicle id="passenger_247" type="passenger_2_passenger" depart="423.00">
        <route edges="-213159004#3 -213159004#1 -213159004#0 23714276#1 23714276#2 23714276#3 932432704 -150480531#1 -150480531#0 -27282358#15 -27282358#14 -27282358#13 -27282358#12 -27282358#11 -27282358#10 -27282358#9 -27282358#8 -27282358#6 -27282358#5 -27282358#3 -27282358#2 -27282358#1 -27282358#0 -27282384#7 -27282384#6 -27282384#5 -27282384#4"/>
    </vehicle>
    <vehicle id="passenger_248" type="passenger_2_passenger" depart="432.00">
        <route edges="992341627#3 942395523#6 942395523#7 942395523#0 189253789#0 -23714318#2 -23714318#1 -23714318#0 23714284 -23714286#3 -23714286#2 -23714286#1 -23714286#0 -23714280#7 -23714280#6 -23714280#5 -23714280#4 -23714280#3 -23714280#2 -23714280#1 -23714280#0 932432703 23714276#3 23714276#4 23714276#5 23714276#6 23714276#0 213159004#0"/>
    </vehicle>
    <vehicle id="passenger_249" type="passenger_2_passenger" depart="441.00">
        <route edges="932432705 23714276#5 23714276#6 23714276#0 23714276#1 932432702 23714280#0 23714280#1 23714280#2 23714280#3 23714280#4 23714280#5 23714280#6 23714280#7 -27282359#8 -27282359#7 -27282359#6 -27282359#5"/>
    </vehicle>
    <vehicle id="passenger_250" type="passenger_2_passenger" depart="450.00">
        <route edges="150480531#0 150480531#1 932432705 23714276#5 23714276#6 23714276#0 23714276#1 932432702 23714280#0 23714280#1 23714280#2 23714280#3 23714280#4 23714280#5 23714280#6 23714280#7 23714286#0 23714286#1 23714286#2 23714286#3 260136572#0"/>
    </vehicle>
    <vehicle id="passenger_251" type="passenger_2_passenger" depart="459.00">
        <route edges="23714319#0 23714319#1 23714284 -23714286#3 -23714286#2 -23714286#1 -23714286#0 -23714280#7 -23714280#6 -23714280#5 -23714280#4 -23714280#3 -23714280#2 -23714280#1 -23714280#0 932432703 23714276#3 23714276#4 23714276#5 23714276#6 23714276#0 213159004#0 213159004#1 213159004#3"/>
    </vehicle>
    <vehicle id="passenger_252" type="passenger_2_passenger" depart="468.00">
        <route edges="-27282358#1 -27282358#0 -27282384#7 -27282384#6 -27282384#5 -27282384#4 -27282384#3 -27282384#2 -27282384#1 -27282384#0 -27282352#7 -27282352#6 -27282352#5 -27282352#4 -27282352#3 -27282352#2 -27282352#1 -27282352#0 942395523#7 23786199#0 23786199#1 23786199#2 23786199#3 27282359#0 27282359#1 27282359#2 27282359#3 27282359#4 27282359#5 27282359#6 27282359#7 27282359#8 23714286#0 23714286#1 23714286#2"/>
    </vehicle>
    <vehicle id="passenger_253" type="passenger_2_passenger" depart="477.00">
        <route edges="23714280#5 23714280#6 23714280#7 23714286#0 23714286#1 23714286#2 23714286#3 -23714284 187718053#0 187718053#1 187718053#2 1026432877#0 1026432877#1"/>
    </vehicle>
    <vehicle id="passenger_254" type="passenger_2_passenger" depart="486.00">
        <route edges="187718053#2 1026432877#0 1026432877#1 -27282359#4 -27282359#3 -27282359#2 -27282359#1 -27282359#0 -23786199#3 -23786199#2 -23786199#1 -23786199#0 942395523#0 942395523#1 942395523#2 932432700 932432701"/>
    </vehicle>
    <vehicle id="passenger_255" type="passenger_2_passenger" depart="495.00">
        <route edges="27282384#1 27282384#2 27282384#3 27282384#4 27282384#5 27282384#6 27282384#7 27282358#0"/>
    </vehicle>
    <vehicle id="passenger_256" type="passenger_2_passenger" depart="504.00">
        <route edges="-188608390#4 -188608390#3 -188608390#2 -188608390#1 -23786199#3 -23786199#2 -23786199#1 -23786199#0"/>
    </vehicle>
    <vehicle id="passenger_257" type="passenger_2_passenger" depart="513.00">
        <route edges="-405494696#0 -670297118 -584181253 584181257 23714295#2 23714295#3 23714295#4 23714319#0 23714319#1 187718053#0 187718053#1 187718053#2 1026432877#0 1026432877#1 27282359#5 27282359#6 27282359#7"/>
    </vehicle>
    <vehicle id="passenger_258" type="passenger_2_passenger" depart="522.00">
        <route edges="-27282358#2 -27282358#1 -27282358#0 -27282384#7 -27282384#6 -27282384#5 -27282384#4 -27282384#3 -27282384#2 -27282384#1 -27282384#0 -27282352#7 -27282352#6 -27282352#5 -27282352#4 -27282352#3 -27282352#2 -27282352#1 -27282352#0 942395523#7 23786199#0 23786199#1 23786199#2 23786199#3 27282359#0 27282359#1 27282359#2 27282359#3 27282359#4 27282359#5 27282359#6 27282359#7 27282359#8 23714286#0 23714286#1"/>
    </vehicle>
    <vehicle id="passenger_259" type="passenger_2_passenger" depart="531.00">
        <route edges="23714280#2 23714280#3 23714280#4 23714280#5 23714280#6 23714280#7 23714286#0 23714286#1 23714286#2 23714286#3 -23714284 -23714319#1 -23714319#0 23714295#5 -23714286#5"/>
    </vehicle>
    <vehicle id="passenger_260" type="passenger_2_passenger" depart="540.00">
        <route edges="27282352#5 27282352#6 27282352#7 27282352#8 27282384#1 27282384#2 27282384#3 27282384#4 27282384#5 27282384#6 27282384#7 27282358#0 27282358#1 27282358#2 27282358#3 27282358#5 27282358#6 27282358#8 27282358#9 27282358#10 27282358#11 27282358#12 27282358#13 27282358#14 27282358#15 150480531#0 150480531#1 932432705 23714276#5 23714276#6 23714276#0 213159004#0 213159004#1 213159004#3"/>
    </vehicle>
    <vehicle id="passenger_261" type="passenger_2_passenger" depart="549.00">
        <route edges="27282358#0 27282358#1 27282358#2 27282358#3 27282358#5 27282358#6 27282358#8 27282358#9 27282358#10 27282358#11 27282358#12 27282358#13 27282358#14 27282358#15 150480531#0 150480531#1 932432705 23714276#5 23714276#6 23714276#0 213159004#0"/>
    </vehicle>
    <vehicle id="passenger_262" type="passenger_2_passenger" depart="558.00">
        <route edges="1026432877#0 1026432877#1 -27282359#4 -27282359#3 -27282359#2 -27282359#1 -27282359#0"/>
    </vehicle>
    <vehicle id="passenger_263" type="passenger_2_passenger" depart="567.00">
        <route edges="-187718053#0 -23714319#1 -23714319#0 23714295#5 23714295#0 23714307 584181253"/>
    </vehicle>
    <vehicle id="passenger_264" type="passenger_2_passenger" depart="576.00">
        <route edges="27282384#1 27282384#2 27282384#3 27282384#4 27282384#5 27282384#6 27282384#7 27282358#0 27282358#1 27282358#2 27282358#3 27282358#5 27282358#6 27282358#8"/>
    </vehicle>
    <vehicle id="passenger_265" type="passenger_2_passenger" depart="585.00">
        <route edges="-27282358#5 -27282358#3 -27282358#2 -27282358#1 -27282358#0 -27282384#7 -27282384#6 -27282384#5 -27282384#4 -27282384#3 -27282384#2 -27282384#1 -27282384#0 -27282352#7 -27282352#6 -27282352#5 -27282352#4 -27282352#3 -27282352#2 -27282352#1 -27282352#0 942395523#7 942395523#0 189253789#0 -23714318#2 -23714318#1 -23714318#0 23714284 260136572#0 260136572#1 260136572#3 260136572#4 260136572#5 -987217843#0 -213159004#8 -213159004#6 -213159004#5 -213159004#4 -213159004#3 -213159004#1"/>
    </vehicle>
    <vehicle id="passenger_266" type="passenger_2_passenger" depart="594.00">
        <route edges="27282384#1 27282384#2 27282384#3 27282384#4 27282384#5 27282384#6 27282384#7 27282358#0 27282358#1 27282358#2 27282358#3 27282358#5 27282358#6 -188608390#5 -188608390#4 -188608390#3 -188608390#2 -188608390#1 -23786199#3 -23786199#2 -23786199#1 -23786199#0 942395523#0 942395523#1 942395523#2 932432700 -23792272 584181258 23714295#4 23714295#5 23714295#0 23714307 584181253 670297118"/>
    </vehicle>
    <vehicle id="passenger_268" type="passenger_2_passenger" depart="612.00">
        <route edges="-213159004#5 -213159004#4 -213159004#3 -213159004#1 -213159004#0 23714276#1 932432702 23714280#0 23714280#1 23714280#2 23714280#3 23714280#4 23714280#5 23714280#6 23714280#7 23714286#0 23714286#1 23714286#2 23714286#3 -23714284 23714318#0 23714318#1 23714318#2 189253787#1 942395523#2 942395523#3 942395523#4 942395523#5 942395523#6 27282352#0 27282352#1 27282352#2 27282352#3 27282352#4 27282352#5"/>
    </vehicle>
    <vehicle id="passenger_269" type="passenger_2_passenger" depart="621.00">
        <route edges="27282352#6 27282352#7 27282352#8 27282384#1 27282384#2 27282384#3 27282384#4 27282384#5 27282384#6 27282384#7 27282358#0 27282358#1 27282358#2 27282358#3 27282358#5 27282358#6 -188608390#5 -188608390#4 -188608390#3 -188608390#2 -188608390#1 -23786199#3 -23786199#2 -23786199#1 -23786199#0 942395523#0 189253789#0 -23714318#2 -23714318#1 -23714318#0 23714284"/>
    </vehicle>
    <vehicle id="passenger_270" type="passenger_2_passenger" depart="630.00">
        <route edges="187816766#4 187816766#5 187816766#6 150480531#0 150480531#1 932432705 23714276#5 23714276#6 23714276#0 213159004#0 213159004#1 213159004#3 213159004#4 213159004#5 213159004#6"/>
    </vehicle>
    <vehicle id="passenger_271" type="passenger_2_passenger" depart="639.00">
        <route edges="-27282358#0 -27282384#7 -27282384#6 -27282384#5 -27282384#4 -27282384#3 -27282384#2 -27282384#1 -27282384#0 -27282352#7 -27282352#6 -27282352#5 -27282352#4 -27282352#3 -27282352#2 -27282352#1 -27282352#0 942395523#7 23786199#0 23786199#1 23786199#2 23786199#3 27282359#0 27282359#1 27282359#2 27282359#3 27282359#4 27282359#5 27282359#6 27282359#7 27282359#8"/>
    </vehicle>
    <vehicle id="passenger_272" type="passenger_2_passenger" depart="648.00">
        <route edges="260136572#5 -260136572#5 -260136572#4 -260136572#3 -260136572#1"/>
    </vehicle>
    <vehicle id="passenger_273" type="passenger_2_passenger" depart="657.00">
        <route edges="213159004#4 213159004#5 213159004#6 213159004#7 987217843#0 -260136572#5 -260136572#4"/>
    </vehicle>
    <vehicle id="passenger_274" type="passenger_2_passenger" depart="666.00">
        <route edges="-23786206#2 -23786206#1 -23786206#0 -27282359#8 -27282359#7 -27282359#6 -27282359#5 -27282359#4 -27282359#3 -27282359#2 -27282359#1 -27282359#0 188608390#1 188608390#2 188608390#3 188608390#4 188608390#5 -27282358#6"/>
    </vehicle>
    <vehicle id="passenger_275" type="passenger_2_passenger" depart="675.00">
        <route edges="992341627#2 992341627#3 942395523#6 942395523#7 942395523#0 189253789#0 -23714318#2 -23714318#1 -23714318#0 23714284 23714286#4"/>
    </vehicle>
    <vehicle id="passenger_276" type="passenger_2_passenger" depart="684.00">
        <route edges="150480531#1 932432705 23714276#5 23714276#6 23714276#0 23714276#1 932432702 23714280#0 23714280#1 23714280#2 23714280#3 23714280#4 23714280#5 23714280#6 23714280#7 -27282359#8 -27282359#7 -27282359#6 -27282359#5 -27282359#4 -27282359#3 -27282359#2 -27282359#1 -27282359#0 -23786199#3 -23786199#2 -23786199#1 -23786199#0 942395523#0 189253789#0"/>
    </vehicle>
    <vehicle id="passenger_277" type="passenger_2_passenger" depart="693.00">
        <route edges="23714284 260136572#0 260136572#1 260136572#3 260136572#4 260136572#5"/>
    </vehicle>
    <vehicle id="passenger_279" type="passenger_2_passenger" depart="711.00">
        <route edges="-27282352#0 942395523#7 942395523#0 189253789#0 -23714318#2 -23714318#1 -23714318#0 23714284 260136572#0 260136572#1 260136572#3 260136572#4"/>
    </vehicle>
    <vehicle id="passenger_280" type="passenger_2_passenger" depart="720.00">
        <route edges="-213159004#5 -213159004#4 -213159004#3 -213159004#1 -213159004#0 23714276#1 932432702 23714280#0 23714280#1 23714280#2 23714280#3 23714280#4 23714280#5 23714280#6 23714280#7 23714286#0"/>
    </vehicle>
    <vehicle id="passenger_281" type="passenger_2_passenger" depart="729.00">
        <route edges="27282352#0 27282352#1 27282352#2 27282352#3 27282352#4 27282352#5 27282352#6 27282352#7 27282352#8 27282384#1 27282384#2 27282384#3 27282384#4 27282384#5 27282384#6 27282384#7"/>
    </vehicle>
    <vehicle id="passenger_282" type="passenger_2_passenger" depart="738.00">
        <route edges="27282359#5 27282359#6 27282359#7 27282359#8 23714286#0 23714286#1 23714286#2 23714286#3 260136572#0 260136572#1 260136572#3 260136572#4 260136572#5 -987217843#0 -213159004#8 -213159004#6 -213159004#5"/>
    </vehicle>
    <vehicle id="passenger_283" type="passenger_2_passenger" depart="747.00">
        <route edges="-27282352#2 -27282352#1 -27282352#0 942395523#7 942395523#0 189253789#0 -23714318#2 -23714318#1"/>
    </vehicle>
    <vehicle id="passenger_284" type="passenger_2_passenger" depart="756.00">
        <route edges="-260136572#1 -260136572#0 -23714286#3 -23714286#2 -23714286#1 -23714286#0"/>
    </vehicle>
    <vehicle id="passenger_285" type="passenger_2_passenger" depart="765.00">
        <route edges="584181256 584181258 23714295#4 23714295#5 -23714286#5 -23714286#4 260136572#0 260136572#1 260136572#3 260136572#4 260136572#5 213159005#2 213159005#4 213159005#5 213159005#6"/>
    </vehicle>
    <vehicle id="passenger_286" type="passenger_2_passenger" depart="774.00">
        <route edges="187816766#4 187816766#5 187816766#6 -27282358#15 -27282358#14 -27282358#13 -27282358#12 -27282358#11 -27282358#10 -27282358#9 -27282358#8 -188608390#5 -188608390#4 -188608390#3 -188608390#2 -188608390#1 -23786199#3 -23786199#2 -23786199#1 -23786199#0 942395523#0 942395523#1 942395523#2 942395523#3 942395523#4 942395523#5 942395523#6 27282352#0 27282352#1 27282352#2 27282352#3 27282352#4 27282352#5 27282352#6 27282352#7 27282352#8 27282384#1 27282384#2 27282384#3 27282384#4 27282384#5 27282384#6 27282384#7 27282358#0 27282358#1"/>
    </vehicle>
    <vehicle id="passenger_287" type="passenger_2_passenger" depart="783.00">
        <route edges="-27282358#15 -27282358#14 -27282358#13 -27282358#12 -27282358#11 -27282358#10 -27282358#9 -27282358#8 -188608390#5 -188608390#4 -188608390#3 -188608390#2 -188608390#1 -23786199#3"/>
    </vehicle>
    <vehicle id="passenger_288" type="passenger_2_passenger" depart="792.00">