<?xml version="1.0" encoding="UTF-8"?>

<!-- generated on 2024-04-22 02:03:11.549117 by randomTrips.py v1_19_0+0000-baa66a0f364
<configuration>
    <net-file value="../sumo_project\osm.net.xml.gz"/>
    <additional-files value="../sumo_project\osm.poly.xml.gz"/>
    <output-trip-file value="../sumo_project\trips\osm.passenger_1.trips.xml"/>
    <route-file value="../sumo_project\trips\osm.passenger_1.rou.xml"/>
    <prefix value="passenger_1"/>
    <vehicle-class value="passenger"/>
    <min-distance value="10.0"/>
    <remove-loops value="True"/>
    <validate value="True"/>
    <end value="32400.0"/>
    <insertion-rate value="700.0"/>
</configuration>
-->

<!-- generated on 2024-04-22 02:03:11 by Eclipse SUMO duarouter Version 1.19.0
<configuration xmlns:xsi="http://www.w3.org/2001/XMLSchema-instance" xsi:noNamespaceSchemaLocation="http://sumo.dlr.de/xsd/duarouterConfiguration.xsd">

    <input>
        <net-file value="../sumo_project\osm.net.xml.gz"/>
        <additional-files value="../sumo_project\osm.poly.xml.gz"/>
        <route-files value="../sumo_project\trips\osm.passenger_1.trips.xml"/>
    </input>

    <output>
        <output-file value="../sumo_project\trips\osm.passenger_1.trips.xml.tmp"/>
        <alternatives-output value="NUL"/>
        <write-trips value="true"/>
    </output>

    <processing>
        <remove-loops value="true"/>
    </processing>

    <time>
        <begin value="0.0"/>
        <end value="32400.0"/>
    </time>

    <report>
        <no-warnings value="true"/>
        <ignore-errors value="true"/>
        <no-step-log value="true"/>
    </report>

</configuration>
-->

<routes xmlns:xsi="http://www.w3.org/2001/XMLSchema-instance" xsi:noNamespaceSchemaLocation="http://sumo.dlr.de/xsd/routes_file.xsd">
    <vType id="passenger_1_passenger" vClass="passenger"/>
    <trip id="passenger_10" type="passenger_1_passenger" depart="0.00" from="23714286#0" to="187718053#1"/>
    <trip id="passenger_11" type="passenger_1_passenger" depart="5.14" from="-27282358#11" to="260136572#5"/>
    <trip id="passenger_12" type="passenger_1_passenger" depart="10.29" from="260136572#5" to="23714319#0"/>
    <trip id="passenger_13" type="passenger_1_passenger" depart="15.43" from="27282384#4" to="-23714277#4"/>
    <trip id="passenger_14" type="passenger_1_passenger" depart="20.57" from="-987217843#0" to="-187718053#2"/>
    <trip id="passenger_15" type="passenger_1_passenger" depart="25.71" from="-260136572#3" to="188608390#4"/>
    <trip id="passenger_16" type="passenger_1_passenger" depart="30.86" from="-187718053#2" to="23786206#1"/>
    <trip id="passenger_17" type="passenger_1_passenger" depart="36.00" from="-23714286#3" to="213159004#4"/>
    <trip id="passenger_19" type="passenger_1_passenger" depart="46.29" from="27282358#15" to="-1026432878"/>
    <trip id="passenger_110" type="passenger_1_passenger" depart="51.43" from="-27282358#14" to="-23786199#3"/>
    <trip id="passenger_111" type="passenger_1_passenger" depart="56.57" from="-27282359#4" to="-23714318#0"/>
    <trip id="passenger_112" type="passenger_1_passenger" depart="61.71" from="932432702" to="-27282359#3"/>
    <trip id="passenger_113" type="passenger_1_passenger" depart="66.86" from="-23714280#1" to="-23714280#1"/>
    <trip id="passenger_114" type="passenger_1_passenger" depart="72.00" from="27282359#2" to="-23714280#2"/>
    <trip id="passenger_115" type="passenger_1_passenger" depart="77.14" from="27282358#15" to="260136572#4"/>
    <trip id="passenger_116" type="passenger_1_passenger" depart="82.29" from="213159004#3" to="932432705"/>
    <trip id="passenger_117" type="passenger_1_passenger" depart="87.43" from="-27282384#4" to="213159004#6"/>
    <trip id="passenger_118" type="passenger_1_passenger" depart="92.57" from="27282358#8" to="23714280#6"/>
    <trip id="passenger_120" type="passenger_1_passenger" depart="102.86" from="-23786206#0" to="188608390#4"/>
    <trip id="passenger_121" type="passenger_1_passenger" depart="108.00" from="-27282352#0" to="-27282358#14"/>
    <trip id="passenger_122" type="passenger_1_passenger" depart="113.14" from="-213159004#8" to="-27282352#1"/>
    <trip id="passenger_123" type="passenger_1_passenger" depart="118.29" from="-23714280#3" to="-27282358#11"/>
    <trip id="passenger_124" type="passenger_1_passenger" depart="123.43" from="23714286#0" to="-27282384#1"/>
    <trip id="passenger_125" type="passenger_1_passenger" depart="128.57" from="-27282384#2" to="260136572#0"/>
    <trip id="passenger_126" type="passenger_1_passenger" depart="133.71" from="-27282358#1" to="584181257"/>
    <trip id="passenger_127" type="passenger_1_passenger" depart="138.86" from="-23714286#2" to="-23714280#3"/>
    <trip id="passenger_128" type="passenger_1_passenger" depart="144.00" from="-23714319#1" to="260136572#3"/>
    <trip id="passenger_129" type="passenger_1_passenger" depart="149.14" from="-23714319#0" to="-27282384#4"/>
    <trip id="passenger_131" type="passenger_1_passenger" depart="159.43" from="213159005#2" to="23786199#0"/>
    <trip id="passenger_132" type="passenger_1_passenger" depart="164.57" from="-27282359#1" to="27282352#8"/>
    <trip id="passenger_133" type="passenger_1_passenger" depart="169.71" from="-27282352#0" to="188608390#1"/>
    <trip id="passenger_134" type="passenger_1_passenger" depart="174.86" from="-27282358#8" to="-27282358#1"/>
    <trip id="passenger_135" type="passenger_1_passenger" depart="180.00" from="-260136572#1" to="584181258"/>
    <trip id="passenger_136" type="passenger_1_passenger" depart="185.14" from="27282384#1" to="27282358#8"/>
    <trip id="passenger_138" type="passenger_1_passenger" depart="195.43" from="-405494696#2" to="187718053#2"/>
    <trip id="passenger_139" type="passenger_1_passenger" depart="200.57" from="-27282358#0" to="-27282352#4"/>
    <trip id="passenger_140" type="passenger_1_passenger" depart="205.71" from="213159005#4" to="-27282358#0"/>
    <trip id="passenger_141" type="passenger_1_passenger" depart="210.86" from="232805395#1" to="27282384#6"/>
    <trip id="passenger_142" type="passenger_1_passenger" depart="216.00" from="-405494696#0" to="260136572#4"/>
    <trip id="passenger_143" type="passenger_1_passenger" depart="221.14" from="992341627#3" to="188608390#5"/>
    <trip id="passenger_144" type="passenger_1_passenger" depart="226.29" from="-23714280#1" to="-188608390#4"/>
    <trip id="passenger_145" type="passenger_1_passenger" depart="231.43" from="23714280#5" to="-23714284"/>
    <trip id="passenger_146" type="passenger_1_passenger" depart="236.57" from="27282358#11" to="670297118"/>
    <trip id="passenger_147" type="passenger_1_passenger" depart="241.71" from="-213159004#3" to="-27282384#4"/>
    <trip id="passenger_148" type="passenger_1_passenger" depart="246.86" from="992341627#3" to="213159004#0"/>
    <trip id="passenger_149" type="passenger_1_passenger" depart="252.00" from="932432705" to="-27282359#5"/>
    <trip id="passenger_150" type="passenger_1_passenger" depart="257.14" from="150480531#0" to="260136572#0"/>
    <trip id="passenger_151" type="passenger_1_passenger" depart="262.29" from="23714319#0" to="213159004#3"/>
    <trip id="passenger_152" type="passenger_1_passenger" depart="267.43" from="-27282358#1" to="23714286#2"/>
    <trip id="passenger_153" type="passenger_1_passenger" depart="272.57" from="23714280#5" to="1026432877#1"/>
    <trip id="passenger_154" type="passenger_1_passenger" depart="277.71" from="187718053#2" to="932432701"/>
    <trip id="passenger_155" type="passenger_1_passenger" depart="282.86" from="27282384#1" to="27282358#0"/>
    <trip id="passenger_156" type="passenger_1_passenger" depart="288.00" from="-188608390#4" to="-23786199#0"/>
    <trip id="passenger_157" type="passenger_1_passenger" depart="293.14" from="-405494696#0" to="27282359#7"/>
    <trip id="passenger_158" type="passenger_1_passenger" depart="298.29" from="-27282358#2" to="23714286#1"/>
    <trip id="passenger_159" type="passenger_1_passenger" depart="303.43" from="23714280#2" to="-23714286#5"/>
    <trip id="passenger_160" type="passenger_1_passenger" depart="308.57" from="27282352#5" to="213159004#3"/>
    <trip id="passenger_161" type="passenger_1_passenger" depart="313.71" from="27282358#0" to="213159004#0"/>
    <trip id="passenger_162" type="passenger_1_passenger" depart="318.86" from="1026432877#0" to="-27282359#0"/>
    <trip id="passenger_163" type="passenger_1_passenger" depart="324.00" from="-187718053#0" to="584181253"/>
    <trip id="passenger_164" type="passenger_1_passenger" depart="329.14" from="27282384#1" to="27282358#8"/>
    <trip id="passenger_165" type="passenger_1_passenger" depart="334.29" from="-27282358#5" to="-213159004#1"/>
    <trip id="passenger_166" type="passenger_1_passenger" depart="339.43" from="27282384#1" to="670297118"/>
    <trip id="passenger_168" type="passenger_1_passenger" depart="349.71" from="-213159004#5" to="27282352#5"/>
    <trip id="passenger_169" type="passenger_1_passenger" depart="354.86" from="27282352#6" to="23714284"/>
    <trip id="passenger_170" type="passenger_1_passenger" depart="360.00" from="187816766#4" to="213159004#6"/>
    <trip id="passenger_171" type="passenger_1_passenger" depart="365.14" from="-27282358#0" to="27282359#8"/>
    <trip id="passenger_172" type="passenger_1_passenger" depart="370.29" from="260136572#5" to="-260136572#1"/>
    <trip id="passenger_173" type="passenger_1_passenger" depart="375.43" from="213159004#4" to="-260136572#4"/>
    <trip id="passenger_174" type="passenger_1_passenger" depart="380.57" from="-23786206#2" to="-27282358#6"/>
    <trip id="passenger_175" type="passenger_1_passenger" depart="385.71" from="992341627#2" to="23714286#4"/>
    <trip id="passenger_176" type="passenger_1_passenger" depart="390.86" from="150480531#1" to="189253789#0"/>
    <trip id="passenger_177" type="passenger_1_passenger" depart="396.00" from="23714284" to="260136572#5"/>
    <trip id="passenger_179" type="passenger_1_passenger" depart="406.29" from="-27282352#0" to="260136572#4"/>
    <trip id="passenger_180" type="passenger_1_passenger" depart="411.43" from="-213159004#5" to="23714286#0"/>
    <trip id="passenger_181" type="passenger_1_passenger" depart="416.57" from="27282352#0" to="27282384#7"/>
    <trip id="passenger_182" type="passenger_1_passenger" depart="421.71" from="27282359#5" to="-213159004#5"/>
    <trip id="passenger_183" type="passenger_1_passenger" depart="426.86" from="-27282352#2" to="-23714318#1"/>
    <trip id="passenger_184" type="passenger_1_passenger" depart="432.00" from="-260136572#1" to="-23714286#0"/>
    <trip id="passenger_185" type="passenger_1_passenger" depart="437.14" from="584181256" to="213159005#6"/>
    <trip id="passenger_186" type="passenger_1_passenger" depart="442.29" from="187816766#4" to="27282358#1"/>
    <trip id="passenger_187" type="passenger_1_passenger" depart="447.43" from="-27282358#15" to="-23786199#3"/>
    <trip id="passenger_188" type="passenger_1_passenger" depart="452.57" from="23714280#2" to="1026432877#0"/>
    <trip id="passenger_189" type="passenger_1_passenger" depart="457.71" from="-987217843#0" to="187816766#1"/>
    <trip id="passenger_190" type="passenger_1_passenger" depart="462.86" from="-260136572#3" to="23714318#2"/>
    <trip id="passenger_191" type="passenger_1_passenger" depart="468.00" from="987217843#0" to="-23714280#1"/>
    <trip id="passenger_192" type="passenger_1_passenger" depart="473.14" from="-405494696#0" to="-27282359#4"/>
    <trip id="passenger_193" type="passenger_1_passenger" depart="478.29" from="-27282359#5" to="-27282352#4"/>
    <trip id="passenger_194" type="passenger_1_passenger" depart="483.43" from="-23786206#0" to="187718053#0"/>
    <trip id="passenger_195" type="passenger_1_passenger" depart="488.57" from="-987217843#0" to="-27282358#11"/>
    <trip id="passenger_196" type="passenger_1_passenger" depart="493.71" from="-27282352#5" to="-468478392#1"/>
    <trip id="passenger_197" type="passenger_1_passenger" depart="498.86" from="187718053#0" to="27282359#5"/>
    <trip id="passenger_198" type="passenger_1_passenger" depart="504.00" from="213159004#7" to="188608390#5"/>
    <trip id="passenger_199" type="passenger_1_passenger" depart="509.14" from="992341627#3" to="27282358#9"/>
    <trip id="passenger_1100" type="passenger_1_passenger" depart="514.29" from="932432704" to="-468478392#1"/>
    <trip id="passenger_1101" type="passenger_1_passenger" depart="519.43" from="-27282359#2" to="-23714318#2"/>
    <trip id="passenger_1102" type="passenger_1_passenger" depart="524.57" from="-188608390#1" to="260136572#1"/>
    <trip id="passenger_1103" type="passenger_1_passenger" depart="529.71" from="-405494696#0" to="-213159004#1"/>
    <trip id="passenger_1104" type="passenger_1_passenger" depart="534.86" from="-27282384#4" to="987217843#0"/>
    <trip id="passenger_1105" type="passenger_1_passenger" depart="540.00" from="27282358#0" to="27282358#1"/>
    <trip id="passenger_1106" type="passenger_1_passenger" depart="545.14" from="187816766#0" to="670297118"/>
    <trip id="passenger_1107" type="passenger_1_passenger" depart="550.29" from="932432702" to="992341626#1"/>
    <trip id="passenger_1108" type="passenger_1_passenger" depart="555.43" from="213159005#2" to="260136572#0"/>
    <trip id="passenger_1109" type="passenger_1_passenger" depart="560.57" from="-23714318#1" to="-27282358#2"/>
    <trip id="passenger_1111" type="passenger_1_passenger" depart="570.86" from="213159004#5" to="27282352#2"/>
    <trip id="passenger_1113" type="passenger_1_passenger" depart="581.14" from="-188608390#5" to="27282359#3"/>
    <trip id="passenger_1114" type="passenger_1_passenger" depart="586.29" from="-23714318#1" to="932432703"/>
    <trip id="passenger_1115" type="passenger_1_passenger" depart="591.43" from="-213159004#8" to="-23786199#2"/>
    <trip id="passenger_1116" type="passenger_1_passenger" depart="596.57" from="23714277#4" to="23714319#0"/>
    <trip id="passenger_1117" type="passenger_1_passenger" depart="601.71" from="-27282352#1" to="-23714280#6"/>
    <trip id="passenger_1118" type="passenger_1_passenger" depart="606.86" from="-27282384#4" to="-27282352#4"/>
    <trip id="passenger_1119" type="passenger_1_passenger" depart="612.00" from="23714277#4" to="23714280#6"/>
    <trip id="passenger_1123" type="passenger_1_passenger" depart="632.57" from="23714318#1" to="-27282358#2"/>
    <trip id="passenger_1124" type="passenger_1_passenger" depart="637.71" from="-27282358#8" to="27282352#3"/>
    <trip id="passenger_1125" type="passenger_1_passenger" depart="642.86" from="-213159004#5" to="187718053#2"/>
    <trip id="passenger_1126" type="passenger_1_passenger" depart="648.00" from="992341627#3" to="992341627#3"/>
    <trip id="passenger_1127" type="passenger_1_passenger" depart="653.14" from="-213159004#6" to="260136572#1"/>
    <trip id="passenger_1128" type="passenger_1_passenger" depart="658.29" from="-27282358#0" to="584181258"/>
    <trip id="passenger_1129" type="passenger_1_passenger" depart="663.43" from="-27282384#2" to="-23714318#0"/>
    <trip id="passenger_1130" type="passenger_1_passenger" depart="668.57" from="27282358#9" to="23786206#0"/>
    <trip id="passenger_1131" type="passenger_1_passenger" depart="673.71" from="23714280#3" to="992341626#0"/>
    <trip id="passenger_1132" type="passenger_1_passenger" depart="678.86" from="23714286#4" to="1026432877#1"/>
    <trip id="passenger_1133" type="passenger_1_passenger" depart="684.00" from="-27282358#3" to="-27282358#2"/>
    <trip id="passenger_1134" type="passenger_1_passenger" depart="689.14" from="23714307" to="584181257"/>
    <trip id="passenger_1135" type="passenger_1_passenger" depart="694.29" from="-23714286#2" to="-23714280#5"/>
    <trip id="passenger_1136" type="passenger_1_passenger" depart="699.43" from="-23714280#4" to="213159004#6"/>
    <trip id="passenger_1137" type="passenger_1_passenger" depart="704.57" from="27282358#10" to="23714280#2"/>
    <trip id="passenger_1138" type="passenger_1_passenger" depart="709.71" from="-260136572#0" to="-23792272"/>
    <trip id="passenger_1139" type="passenger_1_passenger" depart="714.86" from="-23714284" to="-27282358#0"/>
    <trip id="passenger_1140" type="passenger_1_passenger" depart="720.00" from="-188608390#1" to="27282384#7"/>
    <trip id="passenger_1141" type="passenger_1_passenger" depart="725.14" from="27282359#2" to="-23714280#0"/>
    <trip id="passenger_1142" type="passenger_1_passenger" depart="730.29" from="-987217843#0" to="-27282358#11"/>
    <trip id="passenger_1143" type="passenger_1_passenger" depart="735.43" from="-1026432877#0" to="27282352#7"/>
    <trip id="passenger_1144" type="passenger_1_passenger" depart="740.57" from="23714286#0" to="-27282358#0"/>
    <trip id="passenger_1145" type="passenger_1_passenger" depart="745.71" from="27282352#0" to="213159004#6"/>
    <trip id="passenger_1146" type="passenger_1_passenger" depart="750.86" from="1026432877#0" to="150480531#0"/>
    <trip id="passenger_1147" type="passenger_1_passenger" depart="756.00" from="-213159004#6" to="27282384#2"/>
    <trip id="passenger_1148" type="passenger_1_passenger" depart="761.14" from="27282384#7" to="213159004#5"/>
    <trip id="passenger_1150" type="passenger_1_passenger" depart="771.43" from="-23714286#5" to="-23714284"/>
    <trip id="passenger_1151" type="passenger_1_passenger" depart="776.57" from="-27282358#5" to="-27282384#6"/>
    <trip id="passenger_1152" type="passenger_1_passenger" depart="781.71" from="27282358#12" to="-27282359#5"/>
    <trip id="passenger_1153" type="passenger_1_passenger" depart="786.86" from="27282384#6" to="260136572#0"/>
    <trip id="passenger_1154" type="passenger_1_passenger" depart="792.00" from="-27282352#5" to="-23714280#2"/>
    <trip id="passenger_1155" type="passenger_1_passenger" depart="797.14" from="27282358#0" to="27282384#3"/>
    <trip id="passenger_1156" type="passenger_1_passenger" depart="802.29" from="-405494696#2" to="-23714280#6"/>
    <trip id="passenger_1157" type="passenger_1_passenger" depart="807.43" from="-23714318#1" to="584181253"/>
    <trip id="passenger_1159" type="passenger_1_passenger" depart="817.71" from="-27282358#15" to="27282384#2"/>
    <trip id="passenger_1160" type="passenger_1_passenger" depart="822.86" from="-187718053#1" to="260136572#5"/>
    <trip id="passenger_1161" type="passenger_1_passenger" depart="828.00" from="-27282359#2" to="584181253"/>
    <trip id="passenger_1162" type="passenger_1_passenger" depart="833.14" from="27282358#13" to="-27282359#6"/>
    <trip id="passenger_1163" type="passenger_1_passenger" depart="838.29" from="-27282358#15" to="-27282358#1"/>
    <trip id="passenger_1164" type="passenger_1_passenger" depart="843.43" from="27282358#10" to="23714280#4"/>
    <trip id="passenger_1165" type="passenger_1_passenger" depart="848.57" from="-27282359#8" to="-27282359#5"/>
    <trip id="passenger_1166" type="passenger_1_passenger" depart="853.71" from="-260136572#4" to="27282358#3"/>
    <trip id="passenger_1167" type="passenger_1_passenger" depart="858.86" from="187816766#1" to="-27282358#5"/>
    <trip id="passenger_1168" type="passenger_1_passenger" depart="864.00" from="-27282358#12" to="-27282352#0"/>
    <trip id="passenger_1169" type="passenger_1_passenger" depart="869.14" from="187718053#1" to="-23786199#3"/>
    <trip id="passenger_1170" type="passenger_1_passenger" depart="874.29" from="27282359#1" to="27282359#6"/>
    <trip id="passenger_1171" type="passenger_1_passenger" depart="879.43" from="932432704" to="-27282358#12"/>
    <trip id="passenger_1172" type="passenger_1_passenger" depart="884.57" from="23714286#1" to="405494696#0"/>
    <trip id="passenger_1174" type="passenger_1_passenger" depart="894.86" from="584181257" to="-23714280#5"/>
    <trip id="passenger_1175" type="passenger_1_passenger" depart="900.00" from="932432705" to="-23786199#0"/>
    <trip id="passenger_1176" type="passenger_1_passenger" depart="905.14" from="932432703" to="-27282358#0"/>
    <trip id="passenger_1177" type="passenger_1_passenger" depart="910.29" from="23714280#5" to="1026432877#1"/>
    <trip id="passenger_1178" type="passenger_1_passenger" depart="915.43" from="-260136572#3" to="-27282358#8"/>
    <trip id="passenger_1179" type="passenger_1_passenger" depart="920.57" from="23714280#2" to="189253787#1"/>
    <trip id="passenger_1181" type="passenger_1_passenger" depart="930.86" from="-27282352#6" to="23786206#2"/>
    <trip id="passenger_1182" type="passenger_1_passenger" depart="936.00" from="-1026432877#0" to="-468478392#1"/>
    <trip id="passenger_1183" type="passenger_1_passenger" depart="941.14" from="213159004#4" to="-260136572#0"/>
    <trip id="passenger_1184" type="passenger_1_passenger" depart="946.29" from="27282352#0" to="-23714318#2"/>
    <trip id="passenger_1185" type="passenger_1_passenger" depart="951.43" from="-27282384#0" to="-213159004#5"/>
    <trip id="passenger_1186" type="passenger_1_passenger" depart="956.57" from="23714307" to="-27282359#1"/>
    <trip id="passenger_1187" type="passenger_1_passenger" depart="961.71" from="-27282358#8" to="27282359#2"/>
    <trip id="passenger_1188" type="passenger_1_passenger" depart="966.86" from="-260136572#0" to="-27282358#2"/>
    <trip id="passenger_1189" type="passenger_1_passenger" depart="972.00" from="-27282358#6" to="-468478391#1"/>
    <trip id="passenger_1190" type="passenger_1_passenger" depart="977.14" from="-405494696#0" to="-27282358#15"/>
    <trip id="passenger_1191" type="passenger_1_passenger" depart="982.29" from="23714286#0" to="584181253"/>
    <trip id="passenger_1192" type="passenger_1_passenger" depart="987.43" from="584181258" to="23714319#0"/>
    <trip id="passenger_1193" type="passenger_1_passenger" depart="992.57" from="27282384#7" to="23714280#5"/>
    <trip id="passenger_1194" type="passenger_1_passenger" depart="997.71" from="-27282358#3" to="213159004#5"/>
    <trip id="passenger_1195" type="passenger_1_passenger" depart="1002.86" from="1026432877#0" to="-27282358#13"/>
    <trip id="passenger_1197" type="passenger_1_passenger" depart="1013.14" from="23714286#4" to="187816766#1"/>
    <trip id="passenger_1198" type="passenger_1_passenger" depart="1018.29" from="-187718053#0" to="260136572#1"/>
    <trip id="passenger_1199" type="passenger_1_passenger" depart="1023.43" from="187816766#4" to="27282384#6"/>
    <trip id="passenger_1200" type="passenger_1_passenger" depart="1028.57" from="27282358#12" to="-23714319#0"/>
    <trip id="passenger_1202" type="passenger_1_passenger" depart="1038.86" from="-23714284" to="-27282359#3"/>
    <trip id="passenger_1203" type="passenger_1_passenger" depart="1044.00" from="27282358#3" to="27282352#3"/>
    <trip id="passenger_1204" type="passenger_1_passenger" depart="1049.14" from="-23714318#1" to="260136572#5"/>
    <trip id="passenger_1205" type="passenger_1_passenger" depart="1054.29" from="-23786206#2" to="-187718053#1"/>
    <trip id="passenger_1206" type="passenger_1_passenger" depart="1059.43" from="-27282352#4" to="187816766#3"/>
    <trip id="passenger_1207" type="passenger_1_passenger" depart="1064.57" from="27282359#2" to="-213159004#5"/>
    <trip id="passenger_1208" type="passenger_1_passenger" depart="1069.71" from="-584181253" to="23714284"/>
    <trip id="passenger_1209" type="passenger_1_passenger" depart="1074.86" from="-23786206#1" to="23786199#3"/>
    <trip id="passenger_1210" type="passenger_1_passenger" depart="1080.00" from="188608390#3" to="-27282352#3"/>
    <trip id="passenger_1211" type="passenger_1_passenger" depart="1085.14" from="23714286#4" to="1026432877#1"/>
    <trip id="passenger_1212" type="passenger_1_passenger" depart="1090.29" from="27282352#2" to="27282352#7"/>
    <trip id="passenger_1213" type="passenger_1_passenger" depart="1095.43" from="23714280#4" to="-987217843#0"/>
    <trip id="passenger_1214" type="passenger_1_passenger" depart="1100.57" from="-23786199#0" to="932432703"/>
    <trip id="passenger_1216" type="passenger_1_passenger" depart="1110.86" from="-27282352#5" to="27282359#2"/>
    <trip id="passenger_1217" type="passenger_1_passenger" depart="1116.00" from="187816766#0" to="-27282358#13"/>
    <trip id="passenger_1218" type="passenger_1_passenger" depart="1121.14" from="23714318#0" to="992341626#0"/>
    <trip id="passenger_1219" type="passenger_1_passenger" depart="1126.29" from="23714277#4" to="932432700"/>
    <trip id="passenger_1220" type="passenger_1_passenger" depart="1131.43" from="27282384#4" to="23714280#4"/>
    <trip id="passenger_1221" type="passenger_1_passenger" depart="1136.57" from="-260136572#0" to="188608390#4"/>
    <trip id="passenger_1222" type="passenger_1_passenger" depart="1141.71" from="27282358#8" to="213159004#5"/>
    <trip id="passenger_1223" type="passenger_1_passenger" depart="1146.86" from="27282384#6" to="27282352#1"/>
    <trip id="passenger_1224" type="passenger_1_passenger" depart="1152.00" from="187816766#4" to="-27282352#7"/>
    <trip id="passenger_1225" type="passenger_1_passenger" depart="1157.14" from="-27282352#4" to="23714286#1"/>
    <trip id="passenger_1226" type="passenger_1_passenger" depart="1162.29" from="27282352#6" to="194463373#0"/>
    <trip id="passenger_1227" type="passenger_1_passenger" depart="1167.43" from="23714280#7" to="-27282358#10"/>
    <trip id="passenger_1228" type="passenger_1_passenger" depart="1172.57" from="-213159004#8" to="-27282358#13"/>
    <trip id="passenger_1229" type="passenger_1_passenger" depart="1177.71" from="-27282358#10" to="-27282358#9"/>
    <trip id="passenger_1230" type="passenger_1_passenger" depart="1182.86" from="213159004#4" to="-23714286#2"/>
    <trip id="passenger_1231" type="passenger_1_passenger" depart="1188.00" from="-27282352#0" to="23786199#2"/>
    <trip id="passenger_1232" type="passenger_1_passenger" depart="1193.14" from="-23786206#0" to="-213159004#3"/>
    <trip id="passenger_1233" type="passenger_1_passenger" depart="1198.29" from="-405494696#2" to="213159004#4"/>
    <trip id="passenger_1234" type="passenger_1_passenger" depart="1203.43" from="-584181253" to="260136572#0"/>
    <trip id="passenger_1235" type="passenger_1_passenger" depart="1208.57" from="-670297118" to="27282384#7"/>
    <trip id="passenger_1236" type="passenger_1_passenger" depart="1213.71" from="232805395#1" to="23786199#3"/>
    <trip id="passenger_1237" type="passenger_1_passenger" depart="1218.86" from="-27282359#4" to="27282352#6"/>
    <trip id="passenger_1238" type="passenger_1_passenger" depart="1224.00" from="-27282384#4" to="-1026432878"/>
    <trip id="passenger_1239" type="passenger_1_passenger" depart="1229.14" from="-27282359#6" to="27282352#3"/>
    <trip id="passenger_1240" type="passenger_1_passenger" depart="1234.29" from="-27282359#3" to="932432701"/>
    <trip id="passenger_1241" type="passenger_1_passenger" depart="1239.43" from="-670297118" to="27282352#2"/>
    <trip id="passenger_1242" type="passenger_1_passenger" depart="1244.57" from="213159004#6" to="-23714280#2"/>
    <trip id="passenger_1243" type="passenger_1_passenger" depart="1249.71" from="-260136572#4" to="-260136572#4"/>
    <trip id="passenger_1244" type="passenger_1_passenger" depart="1254.86" from="150480531#0" to="-187718053#2"/>
    <trip id="passenger_1245" type="passenger_1_passenger" depart="1260.00" from="-27282359#3" to="23714319#1"/>
    <trip id="passenger_1246" type="passenger_1_passenger" depart="1265.14" from="-405494696#2" to="-23714318#2"/>
    <trip id="passenger_1247" type="passenger_1_passenger" depart="1270.29" from="187816766#2" to="-23714284"/>
    <trip id="passenger_1248" type="passenger_1_passenger" depart="1275.43" from="23714280#5" to="-187718053#2"/>
    <trip id="passenger_1249" type="passenger_1_passenger" depart="1280.57" from="-27282384#7" to="213159005#4"/>
    <trip id="passenger_1250" type="passenger_1_passenger" depart="1285.71" from="-187718053#2" to="-23714286#2"/>
    <trip id="passenger_1251" type="passenger_1_passenger" depart="1290.86" from="-23714286#2" to="187816766#0"/>
    <trip id="passenger_1252" type="passenger_1_passenger" depart="1296.00" from="188608390#5" to="-27282384#4"/>
    <trip id="passenger_1253" type="passenger_1_passenger" depart="1301.14" from="-260136572#1" to="-27282359#1"/>
    <trip id="passenger_1254" type="passenger_1_passenger" depart="1306.29" from="27282352#5" to="27282384#4"/>
    <trip id="passenger_1255" type="passenger_1_passenger" depart="1311.43" from="27282352#3" to="27282358#8"/>
    <trip id="passenger_1256" type="passenger_1_passenger" depart="1316.57" from="-27282352#5" to="-23714277#3"/>
    <trip id="passenger_1257" type="passenger_1_passenger" depart="1321.71" from="-187718053#0" to="213159004#3"/>
    <trip id="passenger_1258" type="passenger_1_passenger" depart="1326.86" from="992341627#3" to="-27282359#6"/>
    <trip id="passenger_1259" type="passenger_1_passenger" depart="1332.00" from="23714286#3" to="27282358#1"/>
    <trip id="passenger_1260" type="passenger_1_passenger" depart="1337.14" from="23714286#3" to="27282352#3"/>
    <trip id="passenger_1261" type="passenger_1_passenger" depart="1342.29" from="932432700" to="23786206#1"/>
    <trip id="passenger_1262" type="passenger_1_passenger" depart="1347.43" from="-187718053#0" to="-23714286#5"/>
    <trip id="passenger_1263" type="passenger_1_passenger" depart="1352.57" from="23714286#0" to="23714318#1"/>
    <trip id="passenger_1264" type="passenger_1_passenger" depart="1357.71" from="213159005#5" to="260136572#3"/>
    <trip id="passenger_1265" type="passenger_1_passenger" depart="1362.86" from="-23786199#2" to="27282352#6"/>
    <trip id="passenger_1266" type="passenger_1_passenger" depart="1368.00" from="-23714319#1" to="-23714280#3"/>
    <trip id="passenger_1267" type="passenger_1_passenger" depart="1373.14" from="27282352#2" to="-23714280#5"/>