<?xml version="1.0" encoding="UTF-8"?>

<!-- generated on 2024-04-22 02:03:38.805974 by randomTrips.py v1_19_0+0000-baa66a0f364
<configuration>
    <net-file value="../sumo_project\osm.net.xml.gz"/>
    <additional-files value="../sumo_project\osm.poly.xml.gz"/>
    <output-trip-file value="../sumo_project\trips\osm.pedestrian_3.trips.xml"/>
    <route-file value="../sumo_project\trips\osm.pedestrian_3.rou.xml"/>
    <pedestrians value="True"/>
    <prefix value="pedestrian_3"/>
    <vehicle-class value="pedestrian"/>
    <validate value="True"/>
    <end value="68400.0"/>
    <insertion-rate value="700.0"/>
</configuration>
-->

<!-- generated on 2024-04-22 02:03:34 by Eclipse SUMO duarouter Version 1.19.0
<configuration xmlns:xsi="http://www.w3.org/2001/XMLSchema-instance" xsi:noNamespaceSchemaLocation="http://sumo.dlr.de/xsd/duarouterConfiguration.xsd">

    <input>
        <net-file value="../sumo_project\osm.net.xml.gz"/>
        <additional-files value="../sumo_project\osm.poly.xml.gz"/>
        <route-files value="../sumo_project\trips\osm.pedestrian_3.trips.xml"/>
    </input>

    <output>
        <output-file value="../sumo_project\trips\osm.pedestrian_3.rou.xml"/>
        <alternatives-output value="NUL"/>
    </output>

    <time>
        <begin value="0.0"/>
        <end value="68400.0"/>
    </time>

    <report>
        <no-warnings value="true"/>
        <ignore-errors value="true"/>
        <no-step-log value="true"/>
    </report>

</configuration>
-->

<routes xmlns:xsi="http://www.w3.org/2001/XMLSchema-instance" xsi:noNamespaceSchemaLocation="http://sumo.dlr.de/xsd/routes_file.xsd">
    <vType id="pedestrian_3_pedestrian" vClass="pedestrian"/>
    <person id="pedestrian_30" type="pedestrian_3_pedestrian" depart="0.00">
        <walk edges="354897451#1 -354897451#0 -354897447#2 354897449 -354897447#0 354897459#0 354897465 354897459#6 -27282352#6 -27282352#7 -1103420587 -23903803#7 -23903803#6 23903803#5 -23903803#4 97170542#0 97170542#1 213159036#1 213159036#2 213159036#3 245809991#2 245809991#1 30900562#0 30900562#1 213159034#0 213159034#1 213159034#2 -30900695#1 -261959620#1 -1103420575#0 -1103420576#0 -1103420576#1 -1245828542"/>
    </person>
    <person id="pedestrian_31" type="pedestrian_3_pedestrian" depart="5.14">
        <walk edges="1024301359#2 1024301359#1 1024301359#0 -1024301355#1 -1024301355#0 -23714277#4 23903796#2 1154235456#0 1154235456#1 686881214#0 686881214#1 686881210#0 686881206#1 686881206#2 686881208 686886556#3 -686886558#1 -686886560#0"/>
    </person>
    <person id="pedestrian_32" type="pedestrian_3_pedestrian" depart="10.29">
        <walk edges="437769494#2 437769494#1 437769494#0 -1103420584#0 -23903803#0 -23903803#1 23903803#2 23903803#3 23903803#4 23903803#5 -23903803#6 23903803#7 686887735#0 -354897503#5 354897506"/>
    </person>
    <person id="pedestrian_35" type="pedestrian_3_pedestrian" depart="25.71">
        <walk edges="-686869009 686881202 754203893 754203894 754203895 754203892#0 754203892#1 686881196#1 686881196#2 686881194#4 686881194#3 686886548#0 686886545#0 686881194#1 686881194#0 97170542#0 97170542#1 213159036#1 213159036#2 213159036#3 245809991#2 245809991#1 30900562#0 30900562#1 213159034#0 213159034#1 213159034#2 -30900695#1 -261959620#1 261959620#2"/>
    </person>
    <person id="pedestrian_37" type="pedestrian_3_pedestrian" depart="36.00">
        <walk edges="354897461 354897459#3 354897459#4 354897459#5 354897459#6 -27282352#6 27282352#7"/>
    </person>
    <person id="pedestrian_38" type="pedestrian_3_pedestrian" depart="41.14">
        <walk edges="-686886558#0 686886560#0 686886563 686886545#2 686886545#1 686886545#0 686881194#1 686881194#0 97170542#0 97170542#1 213159036#1 213159036#2 213159036#3 245809991#2 30900606#1 30900606#2 30900606#3 30900606#4 30900471 30900479#4"/>
    </person>
    <person id="pedestrian_310" type="pedestrian_3_pedestrian" depart="51.43">
        <walk edges="686881200 686881206#3 686881206#2 686881206#1 686881210#0 686881214#1 686881214#0 1154235456#2 1154235456#3 1154235456#4 976016571#0 737809019#4 30900419#1 39247578#11 39247578#10"/>
    </person>
    <person id="pedestrian_311" type="pedestrian_3_pedestrian" depart="56.57">
        <walk edges="1076090375#0 976016571#5 572478318#0 572478319#1 572478319#0 572478320#0 39247578#10 39247578#11 30900419#0 -1103420584#0 -23903803#0 -23903803#1 23903803#2 23903803#3 23903803#4 23903803#5 -23903803#6 23903803#7 -1103420587 -27282352#7 -27282352#6 354897459#6 -354897465 -354897459#0"/>
    </person>
    <person id="pedestrian_314" type="pedestrian_3_pedestrian" depart="72.00">
        <walk edges="686886555 686886548#3 686886548#2 686886548#1 686886545#0 686881194#1 686881194#0 97170542#0 97170542#1 213159036#1 213159036#2 213159036#3 245809991#2 30900606#1 30900606#2 30900606#3 30900606#4 30900471 30900479#3 30900479#2 30900479#1 274736667#1 274736667#0 41808957#1 -41808957#0 39247568 670297118 30900653#1"/>
    </person>
    <person id="pedestrian_315" type="pedestrian_3_pedestrian" depart="77.14">
        <walk edges="686881202 754203893 754203894 754203895 754203892#0 754203892#1 686881196#1 686881196#2 686881194#4 686881194#3 686886548#0 686886545#0 686881194#1 686881194#0 97170542#0 97170542#1 213159036#1 213159036#2 213159036#3 245809991#2 30900606#1 30900606#2 30900606#3 30900606#4 30900471 30900479#3 30900479#2 30900479#1 274736667#1 274736667#0 -41808957#1 41808957#0"/>
    </person>
    <person id="pedestrian_317" type="pedestrian_3_pedestrian" depart="87.43">
        <walk edges="1103976375 -1092392561 484412395#4 1003134363#0 1003134363#1 1003134363#2 1003134363#3 1003134363#4 1003134364#0 1097986493#0 1097986493#2 284653194#0 284653194#1 284653194#2 284653194#3 -405494696#0 39247568 41808957#0 41808957#1 274736667#0 274736667#1"/>
    </person>
    <person id="pedestrian_319" type="pedestrian_3_pedestrian" depart="97.71">
        <walk edges="686886567#0 976020611 686886545#4 686886548#3 686886548#2 686886548#1 686886545#0 686881194#1 686881194#0 -23903803#3 23903803#2 686878717#0 1026433810#0 1026436367#0 1026436367#1 1026436361#1 778526396#1 778526396#0 1026436366 30900422"/>
    </person>
    <person id="pedestrian_320" type="pedestrian_3_pedestrian" depart="102.86">
        <walk edges="39247578#5 39247578#4 39247578#3 39247578#2 39247578#1 -39247570#3 -213159026"/>
    </person>
    <person id="pedestrian_321" type="pedestrian_3_pedestrian" depart="108.00">
        <walk edges="-686886567#1 686886581#0 686886556#0 686886556#1 686886556#2 -686886558#1 686886560#0 686886563 686886545#2 686886545#1 686886545#0 686881194#1 686881194#0 -23903803#3 23903803#2 686878717#0 1026433810#1"/>
    </person>
    <person id="pedestrian_324" type="pedestrian_3_pedestrian" depart="123.43">
        <walk edges="354897447#3 -354897447#2 354897449 -354897447#0 354897459#0 354897465 354897459#6 -27282352#6 -27282352#7 -1103420587 -23903803#7 -23903803#6 23903803#5 -23903803#4 97170542#0 97170542#1 213159036#1 213159036#2 213159036#3 245809991#2 245809991#1 30900562#0 30900562#1 213159034#0 213159034#1 213159034#2 -30900695#1 -261959620#1 -1103420575#0 -1103420576#0 1103420576#1"/>
    </person>
    <person id="pedestrian_325" type="pedestrian_3_pedestrian" depart="128.57">
        <walk edges="1103420579#2 -1103420578#0 261959618 213159034#0 30900598#1 30900519#1 30900519#0 30900453#0 30900479#0 30900479#1 608254627#0 -39247570#0 39247570#1 213159029 1188035819 39247578#2 39247578#3 39247578#4 39247578#5 39247578#6 39247578#7 39247578#8 -41808951#3 41808951#4 41808951#5 -41808951#6"/>
    </person>
    <person id="pedestrian_326" type="pedestrian_3_pedestrian" depart="133.71">
        <walk edges="1024301354 1024301353#0 -1024301355#0 -23714277#4 23903796#1 23903796#0 1154235456#5 1154235456#4 437769494#5 437769494#4 437769494#3 437769494#2 437769494#1 437769494#0 30900422 1026436366 778526396#0"/>
    </person>
    <person id="pedestrian_329" type="pedestrian_3_pedestrian" depart="149.14">
        <walk edges="-354897459#6 -27282352#6 -27282352#7 -1103420587 -23903803#7 -23903803#6 23903803#5 23903803#4 97170542#0 97170542#1 213159036#1 213159036#2 213159036#3 245809991#2 30900606#1 30900606#2 30900606#3 30900606#4 30900471 30900479#3 30900479#2 30900479#1 274736667#1 274736667#0 -41808957#1 -41808957#0 39247568 -405494696#0 1097986495#1 1117761258"/>
    </person>
    <person id="pedestrian_331" type="pedestrian_3_pedestrian" depart="159.43">
        <walk edges="284653194#2 284653194#3 -405494696#0 39247568 584181260#0 584181260#1 584181260#2 584181260#3 584181260#4 608249482#2 608254627#1 39247570#0"/>
    </person>
    <person id="pedestrian_332" type="pedestrian_3_pedestrian" depart="164.57">
        <walk edges="686886551#1 686886551#0 686886548#1 686886545#0 686881194#1 686881194#0 97170542#0 97170542#1 213159036#1 213159036#2 213159036#3 245809991#2 30900606#1 30900606#2 30900606#3 30900606#4 30900471 30900479#3 30900479#2 608254627#0"/>
    </person>
    <person id="pedestrian_335" type="pedestrian_3_pedestrian" depart="180.00">
        <walk edges="-41808957#0 41808947#0 41808947#1 584181260#1 584181259 847972807#2"/>
    </person>
    <person id="pedestrian_338" type="pedestrian_3_pedestrian" depart="195.43">
        <walk edges="737809019#2 737809019#1 976016571#3 976016571#4 976016571#5 1076090375#0 1097986493#0 1003134364#0 1003134363#4 1003134363#3 1003134363#2 1003134363#1 1003134363#0 484412395#4 484412395#3 1092392565 1092384231 1092392569 1091733351 1091733352 219899012#1 219899012#0 1092392568 219899008#1 219899008#2"/>
    </person>
    <person id="pedestrian_339" type="pedestrian_3_pedestrian" depart="200.57">
        <walk edges="1024301353#1 1024301353#0 -1024301355#0 -23714277#4 23903796#1 23903796#0 1154235456#5 1154235456#4 437769494#5 437769494#4 437769494#3 437769494#2 437769494#1 437769494#0 30900422 1026436366 1026436364 30900479#4 30900479#3 30900479#2 30900479#1 30900479#0 30900453#0 30900519#0 30900519#1 30900598#1 213159034#0 213159034#1 213159034#2 1003134362#0 1003134362#1"/>
    </person>
    <person id="pedestrian_340" type="pedestrian_3_pedestrian" depart="205.71">
        <walk edges="30900227 437769494#1 437769494#2 437769494#3 437769494#4 437769494#5 1154235456#3 1154235456#2 686881214#0 1024301350#3 1024301351 1024301350#1 1024301352"/>
    </person>
    <person id="pedestrian_341" type="pedestrian_3_pedestrian" depart="210.86">
        <walk edges="30900479#1 30900479#2 30900479#3 30900471 30900606#4 30900606#3 30900606#2 30900606#1 245809991#2 213159036#3 213159036#2 213159036#1 97170542#1 97170542#0 686881194#0 686881194#1 686886545#0 686886545#1 686886545#2 686886563 686886560#0 686886558#1 686886556#2 686886556#1 686886556#0 686886581#0 686886581#1 686886587#0"/>
    </person>
    <person id="pedestrian_343" type="pedestrian_3_pedestrian" depart="221.14">
        <walk edges="983316290 213159012#1 39344197 39247570#4 -39247570#3 39247570#2 -39247570#1 -39247570#0 608254627#0 30900479#1 30900479#0 30900453#0 30900519#0 30900519#1 30900598#1 213159034#0 213159034#1 213159034#2 -30900695#1 -261959620#1 -1103420575#0 -1103420576#0 261959632"/>
    </person>
    <person id="pedestrian_346" type="pedestrian_3_pedestrian" depart="236.57">
        <walk edges="686881194#0 -23903803#3 23903803#2 -23903803#1 -23903803#0 1103420585 30900419#0 39247578#11 39247578#10 39247578#9 39247578#8 213159032#0 213159032#1 213159032#2 213159012#8 213159012#7"/>
    </person>
    <person id="pedestrian_347" type="pedestrian_3_pedestrian" depart="241.71">
        <walk edges="-23903803#5 23903803#5 -23903803#4 97170542#0 97170542#1 213159036#1 213159036#2 213159036#3 245809991#2 30900606#1 30900606#2 30900606#3 30900606#4 30900471 30900479#3 30900479#2 30900479#1 274736667#1 274736667#0 -41808957#1 -41808957#0 39247568 -405494696#0 284653194#3 284653194#2 284653194#1 284653194#0 1117815313"/>
    </person>
    <person id="pedestrian_348" type="pedestrian_3_pedestrian" depart="246.86">
        <walk edges="976026779#0 -27282358#0 -263820515#0 263820508#1"/>
    </person>
    <person id="pedestrian_349" type="pedestrian_3_pedestrian" depart="252.00">
        <walk edges="975979458#2 686886576#2 686886570#1 686886574#1 686886574#0 686886556#1 686886565"/>
    </person>
    <person id="pedestrian_350" type="pedestrian_3_pedestrian" depart="257.14">
        <walk edges="-1103420576#1 1103420575#2 -1103420575#0 -261959620#1 -30900695#1 213159034#2 213159034#1 213159034#0 30900598#1 30900519#1 30900519#0 30900453#0 30900479#0 30900479#1 608254627#0 -39247570#0 39247570#1 213159029 1188035819 39247578#2 39247578#3 39247578#4 39247578#5 39247578#6 39247578#7 39247578#8 41808951#2"/>
    </person>
    <person id="pedestrian_352" type="pedestrian_3_pedestrian" depart="267.43">
        <walk edges="1024301354 1024301353#0 -1024301355#0 -23714277#4 23903796#2 1154235456#0 1154235456#1 686881214#0 686881214#1 686881210#0 686881206#1 686881206#2 686881206#3 686881194#5 686881194#4 686881194#3 686886548#0 686886545#0 686881194#1 686881194#0 23903803#4 23903803#5 -23903803#6 23903803#7 -1103420587 -27282352#7 -27282352#6 354897459#6 -354897465 354897459#0 -354897447#0 -354897449 354897447#2 -354897451#0 354897454"/>
    </person>
    <person id="pedestrian_355" type="pedestrian_3_pedestrian" depart="282.86">
        <walk edges="686886572#2 686886556#0 686886556#1 686886556#2 686886556#3 686881208 686881206#2 686881206#1 686881210#0 686881214#1 686881214#0 1154235456#1 1154235456#0 23903796#2 -23714277#4 1024301355#0 1024301353#0"/>
    </person>
    <person id="pedestrian_357" type="pedestrian_3_pedestrian" depart="293.14">
        <walk edges="712264648 393517899 1003134362#0 213159034#2 213159034#1 213159034#0 30900562#1 30900562#0 245809991#1 245809991#2 213159036#3 213159036#2 213159036#1 97170542#1 97170542#0 686881194#0 686881194#1 686886545#0 686886545#1 686886545#2 686886563 686886560#0 686886558#1 686886556#2 686886574#0 686886574#1 686886570#1"/>
    </person>
    <person id="pedestrian_358" type="pedestrian_3_pedestrian" depart="298.29">
        <walk edges="1026436364 1026436365#1 1026436365#0 30900414#1 30900414#0 30900409 213159036#2 213159036#1 97170542#1 97170542#0 -23903803#4 23903803#5 -23903803#6 23903803#7 -1103420587 -27282352#7 -27282352#6 354897459#6 -354897465 354897459#0 -354897447#0 -354897449 354897447#2 -354897451#0 354897451#1"/>
    </person>
    <person id="pedestrian_363" type="pedestrian_3_pedestrian" depart="324.00">
        <walk edges="-1103420583#0 -1103420576#1 1103420575#2 -1103420575#0 -261959620#1 -30900695#1 213159034#2 213159034#1 213159034#0 30900562#1 30900562#0 245809991#1 245809991#2 213159036#3 213159036#2 213159036#1 97170542#1 97170542#0 686881194#0 686881194#1 686886545#0 686886548#0 686881194#3 686881194#4 686881196#2 686881196#1 754203892#1 754203892#0"/>
    </person>
    <person id="pedestrian_364" type="pedestrian_3_pedestrian" depart="329.14">
        <walk edges="686886574#1 686886574#0 686886556#2 686886558#1 686886560#0 686886563 686886545#3"/>
    </person>
    <person id="pedestrian_366" type="pedestrian_3_pedestrian" depart="339.43">
        <walk edges="686886574#1 686886574#0 686886556#2 686886558#1 686886560#0 686886563 686886545#2 686886545#1 686886545#0 686881194#1 686881194#0 97170542#0 97170542#1 213159036#1 213159036#2 213159036#3 245809991#2 30900606#1 30900606#2 30900606#3 30900606#4 30900471 30900479#3 30900479#2 608254627#0 608254627#1 608249482#2 584181260#4 584181260#3 584181260#2 584181260#1 584181259 847976227 847976228"/>
    </person>
    <person id="pedestrian_368" type="pedestrian_3_pedestrian" depart="349.71">
        <walk edges="-259886131#1 -259886131#0 -27282352#7 -1103420587 -23903803#7 -23903803#6 23903803#5 -23903803#4 97170542#0 97170542#1 213159036#1 213159036#2 213159036#3 245809991#2 30900606#1 30900606#2 30900606#3 30900606#4 30900471 30900479#3 30900479#2 30900479#1 274736667#1 274736667#0 -41808957#1 -41808957#0 584181260#0"/>
    </person>
    <person id="pedestrian_370" type="pedestrian_3_pedestrian" depart="360.00">
        <walk edges="23714277#4 23903796#2 1154235456#0 1154235456#1 686881214#0 686881214#1 686881210#0 686881206#1 686881206#2 686881206#3 686881194#5 686881194#4 686881194#3 686886548#0 686886545#0 686881194#1 686881194#0 23903803#4 354897495 27282359#1"/>
    </person>
    <person id="pedestrian_371" type="pedestrian_3_pedestrian" depart="365.14">
        <walk edges="1024301353#1 1024301353#0 -1024301355#0 -23714277#4 23903796#2 1154235456#0 1154235456#1 686881214#0 686881214#1 686881210#0 686881206#1 686881206#2 686881208 686886556#3 686886556#2 686886574#0 686886574#1 686886570#1 686886570#2"/>
    </person>
    <person id="pedestrian_372" type="pedestrian_3_pedestrian" depart="370.29">
        <walk edges="213159012#7 213159012#6 213159012#5 213159012#4 213159012#3 213159012#2 213159012#1 39247575 584181260#5 584181260#4 584181260#3 584181260#2 41808947#1 41808947#0 -41808957#1"/>
    </person>
    <person id="pedestrian_377" type="pedestrian_3_pedestrian" depart="396.00">
        <walk edges="-30900419#5 30900419#4 737809019#4 976016571#0 1154235456#4 1154235456#3 1154235456#2 686881214#0 686881214#1 686881210#0 686881206#1 686881206#2 686881208 686886556#3 -686886558#1 686886560#0 -686886560#1"/>
    </person>
    <person id="pedestrian_379" type="pedestrian_3_pedestrian" depart="406.29">
        <walk edges="-778526130 686879295#2 686878639 -686878717#0"/>
    </person>
    <person id="pedestrian_380" type="pedestrian_3_pedestrian" depart="411.43">
        <walk edges="-259886132#1 -259886131#1 -259886131#0 -27282352#6 354897459#6 354897465 354897459#0 354897447#0"/>
    </person>
    <person id="pedestrian_381" type="pedestrian_3_pedestrian" depart="416.57">
        <walk edges="-712263844 23903803#2 23903803#3 686881194#0 686881194#1 686886545#0 686886545#1 686886545#2 686886563 686886560#0 686886558#1 686886556#2 686886556#1 686886556#0 686886581#0 686886581#1 686886581#2 686886581#3 686891010#0"/>
    </person>
    <person id="pedestrian_382" type="pedestrian_3_pedestrian" depart="421.71">
        <walk edges="686886563 686886545#2 686886545#1 686886545#0 686881194#1 686881194#0 23903803#4 23903803#5 -23903803#6 23903803#7 -1103420587 -27282352#7 -259886131#0 259886131#1 -259886132#1"/>
    </person>
    <person id="pedestrian_385" type="pedestrian_3_pedestrian" depart="437.14">
        <walk edges="778526131 670263784 437769494#2 437769494#1 437769494#0 30900422 1026436366 778526396#0 778526396#1 1026436361#2 30900414#1"/>
    </person>
    <person id="pedestrian_386" type="pedestrian_3_pedestrian" depart="442.29">
        <walk edges="225420970#4 213159012#3 213159035#0 213159035#1 213159035#2 39247578#2 1188035819 213159029 -39247570#1 -39247570#0 220299970#1 675706046"/>
    </person>
    <person id="pedestrian_387" type="pedestrian_3_pedestrian" depart="447.43">
        <walk edges="686881204 754203891#2 686881200 686881194#6 686886556#3 686886556#2 686886556#1 686886556#0 686886581#0 686886581#1 686886581#2 686886581#3 686887735#2 -354897503#1 354897503#2 -354897511"/>
    </person>
    <person id="pedestrian_388" type="pedestrian_3_pedestrian" depart="452.57">
        <walk edges="-263820512#1 263820512#1 -263820503#1 686891010#4 686891010#5 686886578#1 686886587#1 686886587#0 686886581#1 686886581#0 686886556#0 686886556#1 686886556#2 -686886558#1 686886560#0 686886563 686886545#2 686886545#1 686886545#0 686881194#1 686881194#0 97170542#0 97170542#1 213159036#1 213159036#2 213159036#3 245809991#2 30900606#1 30900606#2 30900606#3 30900606#4 30900471 30900479#3 30900479#2 608254627#0 -39247570#0 39247570#1 213159029 1188035819 39247578#2 213159035#2 213159035#1 213159020"/>
    </person>
    <person id="pedestrian_389" type="pedestrian_3_pedestrian" depart="457.71">
        <walk edges="213159012#8 213159012#7 213159012#6 213159012#5 213159012#4 213159012#3 213159035#0 213159035#1 213159035#2 39247578#2 1188035819 213159029 -39247570#1 -39247570#0 220299970#1 220299970#2"/>
    </person>
    <person id="pedestrian_390" type="pedestrian_3_pedestrian" depart="462.86">
        <walk edges="41808954 41808957#0 41808957#1 274736667#0 274736667#1 30900479#1 30900479#2 30900479#3 30900471 30900606#4 30900606#3 30900606#2 30900606#1 245809991#2 213159036#3 213159036#2 213159036#1 97170542#1 97170542#0 23903803#4 23903803#5 -23903803#6 23903803#7 686887735#0 -354897503#5 -354897503#4 354897503#3"/>
    </person>
    <person id="pedestrian_391" type="pedestrian_3_pedestrian" depart="468.00">
        <walk edges="976024756 -27282358#1 -27282358#0 -263820515#0"/>
    </person>
    <person id="pedestrian_393" type="pedestrian_3_pedestrian" depart="478.29">
        <walk edges="686886567#0 686886567#1 686886581#0 686886556#0 686886556#1 686886556#2 686886556#3 686881208 686881206#2 686881206#1 686881210#0 686881214#1 686881214#0 1154235456#2 1154235456#3 1154235456#4 976016571#0 737809019#4 976016571#2 976016571#3 976016571#4 976016571#5 1076090375#0 1097986493#0 1003134364#0 1003134363#4 1003134363#3 1003134363#2 1003134363#1"/>
    </person>
    <person id="pedestrian_394" type="pedestrian_3_pedestrian" depart="483.43">
        <walk edges="-354897511 354897503#3 354897503#4 -354897503#5 686887735#0 -23903803#7 -23903803#6 23903803#5 -23903803#4 97170542#0 97170542#1 213159036#1 213159036#2 213159036#3 245809991#2 30900606#1 30900606#2 30900606#3 30900606#4 30900471 30900479#3 30900479#2 608254627#0 -39247570#0 39247570#1 213159029 1188035819 39247578#2 213159035#2 213159035#1 213159035#0"/>
    </person>
    <person id="pedestrian_396" type="pedestrian_3_pedestrian" depart="493.71">
        <walk edges="1003134363#2 1003134363#3 1003134363#4 1003134364#0 1097986493#0 1076090375#0 976016571#5 976016571#4 976016571#3 976016571#2 737809019#4 976016571#0 1154235456#4 1154235456#3 1154235456#2 686881214#0 686881214#1 686881210#0 686881206#1 686881206#2 686881206#3 686881200 754203891#2 754203891#1 754203891#0 754203890"/>
    </person>
    <person id="pedestrian_397" type="pedestrian_3_pedestrian" depart="498.86">
        <walk edges="213159032#2 213159032#1 213159032#0 39247578#8 39247578#9 39247578#10 39247578#11 30900419#1 737809019#4 976016571#0 1154235456#4 1154235456#3 1154235456#2 686881214#0 686881214#1 686881210#0 686881206#1 686881206#2 686881208 686886556#3 686886556#2 686886556#1 686886565"/>
    </person>
    <person id="pedestrian_398" type="pedestrian_3_pedestrian" depart="504.00">
        <walk edges="27282359#1 354897495 -23903803#4 97170542#0 97170542#1 213159036#1 213159036#2 213159036#3 245809991#2 30900606#1 30900606#2 30900606#3 30900606#4 30900471 30900479#3 30900479#2 608254627#0 220299970#1 -220299970#2"/>
    </person>
    <person id="pedestrian_399" type="pedestrian_3_pedestrian" depart="509.14">
        <walk edges="998027138 -23714280#5 670263784 437769494#2 437769494#1 437769494#0 -1103420584#0 -23903803#0 -23903803#1 23903803#2 23903803#3 686881194#0 686881194#1 686886545#0 686886548#1"/>
    </person>
    <person id="pedestrian_3100" type="pedestrian_3_pedestrian" depart="514.29">
        <walk edges="975979452 686886587#2 686886587#1 686886587#0 686886581#1 686886581#0 686886556#0 686886556#1 686886556#2 686886556#3 686881194#6 686881200 754203891#2 754203891#1"/>
    </person>
    <person id="pedestrian_3101" type="pedestrian_3_pedestrian" depart="519.43">
        <walk edges="686886556#0 686886581#0 686886581#1 686886581#2 686886581#3 686887735#2 686887735#1 686887735#0 -1103420587 -27282352#7 -27282352#6 354897459#6 -354897465"/>
    </person>
    <person id="pedestrian_3105" type="pedestrian_3_pedestrian" depart="540.00">
        <walk edges="1024301353#1 1024301353#0 -1024301355#0 -23714277#4 23903796#1 23903796#0 1154235456#5 1154235456#4 437769494#5 437769494#4 437769494#3 437769494#2 437769494#1 437769494#0 30900422 1026436366 1026436364 30900479#4 30900479#3 30900479#2 608254627#0 220299970#1 675706046"/>
    </person>
    <person id="pedestrian_3106" type="pedestrian_3_pedestrian" depart="545.14">
        <walk edges="213159036#3 245809991#2 30900606#1 30900606#2 30900606#3 30900606#4 30900471 30900479#3 30900479#2 608254627#0 -39247570#0 39247570#1 213159029 1188035819 39247578#2 213159035#2 213159035#1 213159035#0 213159012#3 213159012#4 213159012#5 213159012#6 213159012#7"/>
    </person>
    <person id="pedestrian_3108" type="pedestrian_3_pedestrian" depart="555.43">
        <walk edges="284653194#1 284653194#0 1097986493#2 1076090375#0 976016571#5 572478318#0 572478319#1 572478319#0 572478320#1 41808951#0"/>
    </person>
    <person id="pedestrian_3109" type="pedestrian_3_pedestrian" depart="560.57">
        <walk edges="-354897454 -354897451#0 -354897447#2 354897449 -354897447#0 354897459#0 354897465 354897459#6 -27282352#6 -27282352#7 -1103420587 -23903803#7 -23903803#6 23903803#5 -23903803#4 97170542#0 97170542#1 213159036#1 213159036#2 30900409 30900414#0 30900414#1 1026436365#0 1026436365#1 1026436363"/>
    </person>
    <person id="pedestrian_3110" type="pedestrian_3_pedestrian" depart="565.71">
        <walk edges="975979452 686886587#2 686886587#1 686886587#0 686886581#1 686886581#0 686886556#0 686886556#1 686886556#2 -686886558#1 -686886560#0 686886563 686886545#2 686886545#1 686886545#0 686881194#1 686881194#0 97170542#0 97170542#1 213159036#1 213159036#2 213159036#3 245809991#2 245809991#1 30900562#0 30900562#1 30900598#1 30900519#1 30900519#0 30900453#0"/>
    </person>
    <person id="pedestrian_3112" type="pedestrian_3_pedestrian" depart="576.00">
        <walk edges="-23903803#0 41808953 1026436367#0 1026436367#1 1026436361#1 1026436361#2 1026436362 30900606#4 30900471 30900479#3 30900479#2 30900479#1 30900479#0"/>
    </person>
    <person id="pedestrian_3113" type="pedestrian_3_pedestrian" depart="581.14">
        <walk edges="261959618 213159034#0 30900562#1 30900562#0 245809991#1 245809991#2 213159036#3 213159036#2 213159036#1 97170542#1 97170542#0 686881194#0 686881194#1 686886545#0 686886545#1 686886545#2 686886563 686886560#0 686886558#0"/>
    </person>
    <person id="pedestrian_3114" type="pedestrian_3_pedestrian" depart="586.29">
        <walk edges="-354897459#2 354897459#3 354897459#4 354897459#5 354897459#6 -27282352#6 -27282352#7 -1103420587 -23903803#7 -23903803#6 23903803#5 -23903803#4 -23903803#3 23903803#2 -23903803#1 -23903803#0 1103420585 437769494#0 437769494#1 437769494#2 437769494#3 437769494#4 -30900337#1 975927445#1"/>
    </person>
    <person id="pedestrian_3115" type="pedestrian_3_pedestrian" depart="591.43">
        <walk edges="-261959630#1 213159036#1 97170542#1 97170542#0 23903803#4 23903803#5 -23903803#6 23903803#7 686887735#0 -354897503#5"/>
    </person>
    <person id="pedestrian_3116" type="pedestrian_3_pedestrian" depart="596.57">
        <walk edges="30900598#1 30900562#1 30900562#0 245809991#1 245809991#2 213159036#3 213159036#2 213159036#1 97170542#1 97170542#0 -23903803#4 23903803#5 -23903803#6 23903803#7 686887735#0 -354897503#5 354897503#5"/>
    </person>
    <person id="pedestrian_3117" type="pedestrian_3_pedestrian" depart="601.71">
        <walk edges="-975927445#0 975927445#1 30900337#1 437769494#5 1154235456#4 976016571#0 737809019#4 -30900419#4"/>
    </person>
    <person id="pedestrian_3118" type="pedestrian_3_pedestrian" depart="606.86">
        <walk edges="686886581#0 686886556#0 686886556#1 686886556#2 -686886558#1 686886560#0 686886563 686886545#2 686886545#1 686886545#0 686881194#1 686881194#0 97170542#0 97170542#1 213159036#1 213159036#2 213159036#3 245809991#2 245809991#1 30900562#0 30900562#1 213159034#0 213159034#1 213159034#2 1003134362#0 1003134362#1"/>
    </person>
    <person id="pedestrian_3120" type="pedestrian_3_pedestrian" depart="617.14">
        <walk edges="213159012#4 213159012#3 213159035#0 213159035#1 213159035#2 39247578#2 1188035819 213159029 -39247570#1 -39247570#0 608254627#0 30900479#1 30900479#0"/>
    </person>
    <person id="pedestrian_3122" type="pedestrian_3_pedestrian" depart="627.43">
        <walk edges="-41808951#2 39247578#8 213159032#0 213159032#1 213159032#2 213159012#8 213159012#7 213159012#6 213159012#5 213159012#4 213159012#3 213159012#2 213159012#1 39247575 584181260#5 584181260#4 584181260#3 584181260#2 41808947#1"/>
    </person>
    <person id="pedestrian_3124" type="pedestrian_3_pedestrian" depart="637.71">
        <walk edges="354897503#2 354897503#3 354897503#4 -354897503#5 686887735#0 -23903803#7 -23903803#6 23903803#5 -23903803#4 97170542#0 97170542#1 213159036#1 213159036#2 30900409 30900414#0 30900414#1 1026436365#0 1026436365#1"/>
    </person>
    <person id="pedestrian_3126" type="pedestrian_3_pedestrian" depart="648.00">
        <walk edges="-259886132#2 -259886131#0 -27282352#7 -1103420587 -23903803#7 -23903803#6 23903803#5 -23903803#4 97170542#0 97170542#1 213159036#1 213159036#2 213159036#3 245809991#2 30900606#1 30900606#2 30900606#3 30900606#4 30900471 30900479#3 30900479#2 30900479#1 274736667#1 274736667#0 -41808957#1 -41808957#0 39247568 -405494696#0 284653194#3 284653194#2 284653194#1 284653194#0 1097986493#2 1097986493#0 1003134364#0 1003134363#4 1003134363#3 1003134363#2 1003134363#1 1003134363#0 484412395#4 484412395#3 1092392565 1092384231 1092392569 1091733351 1091733352 219899012#1 219899012#0 1092392568 219899008#1"/>
    </person>
    <person id="pedestrian_3129" type="pedestrian_3_pedestrian" depart="663.43">
        <walk edges="1024301353#1 1024301353#0 -1024301355#0 -23714277#4 23903796#2 1154235456#0 1154235456#1 686881214#0 686881214#1 686881210#0 686881206#1 686881206#2 686881206#3 686881200 754203891#2 686881204 754203892#0 754203895"/>
    </person>
    <person id="pedestrian_3130" type="pedestrian_3_pedestrian" depart="668.57">
        <walk edges="686886576#1 686886576#0"/>
    </person>
    <person id="pedestrian_3131" type="pedestrian_3_pedestrian" depart="673.71">