<?xml version="1.0" encoding="UTF-8"?>

<!-- generated on 2024-04-22 02:03:08.248665 by randomTrips.py v1_19_0+0000-baa66a0f364
<configuration>
    <net-file value="../sumo_project\osm.net.xml.gz"/>
    <additional-files value="../sumo_project\osm.poly.xml.gz"/>
    <output-trip-file value="../sumo_project\trips\osm.pedestrian_0.trips.xml"/>
    <route-file value="../sumo_project\trips\osm.pedestrian_0.rou.xml"/>
    <pedestrians value="True"/>
    <prefix value="pedestrian_0"/>
    <vehicle-class value="pedestrian"/>
    <validate value="True"/>
    <end value="25200.0"/>
    <insertion-rate value="200.0"/>
</configuration>
-->

<!-- generated on 2024-04-22 02:03:07 by Eclipse SUMO duarouter Version 1.19.0
<configuration xmlns:xsi="http://www.w3.org/2001/XMLSchema-instance" xsi:noNamespaceSchemaLocation="http://sumo.dlr.de/xsd/duarouterConfiguration.xsd">

    <input>
        <net-file value="../sumo_project\osm.net.xml.gz"/>
        <additional-files value="../sumo_project\osm.poly.xml.gz"/>
        <route-files value="../sumo_project\trips\osm.pedestrian_0.trips.xml"/>
    </input>

    <output>
        <output-file value="../sumo_project\trips\osm.pedestrian_0.trips.xml.tmp"/>
        <alternatives-output value="NUL"/>
        <write-trips value="true"/>
    </output>

    <time>
        <begin value="0.0"/>
        <end value="25200.0"/>
    </time>

    <report>
        <no-warnings value="true"/>
        <ignore-errors value="true"/>
        <no-step-log value="true"/>
    </report>

</configuration>
-->

<routes xmlns:xsi="http://www.w3.org/2001/XMLSchema-instance" xsi:noNamespaceSchemaLocation="http://sumo.dlr.de/xsd/routes_file.xsd">
    <vType id="pedestrian_0_pedestrian" vClass="pedestrian"/>
    <person id="pedestrian_00" type="pedestrian_0_pedestrian" depart="0.00">
        <personTrip from="354897451#1" to="-1245828542" walkFactor="0.75"/>
    </person>
    <person id="pedestrian_01" type="pedestrian_0_pedestrian" depart="18.00">
        <personTrip from="1024301359#2" to="-686886560#0" walkFactor="0.75"/>
    </person>
    <person id="pedestrian_02" type="pedestrian_0_pedestrian" depart="36.00">
        <personTrip from="437769494#2" to="354897506" walkFactor="0.75"/>
    </person>
    <person id="pedestrian_05" type="pedestrian_0_pedestrian" depart="90.00">
        <personTrip from="-686869009" to="261959620#2" walkFactor="0.75"/>
    </person>
    <person id="pedestrian_07" type="pedestrian_0_pedestrian" depart="126.00">
        <personTrip from="354897461" to="27282352#7" walkFactor="0.75"/>
    </person>
    <person id="pedestrian_08" type="pedestrian_0_pedestrian" depart="144.00">
        <personTrip from="-686886558#0" to="30900479#4" walkFactor="0.75"/>
    </person>
    <person id="pedestrian_010" type="pedestrian_0_pedestrian" depart="180.00">
        <personTrip from="686881200" to="39247578#10" walkFactor="0.75"/>
    </person>
    <person id="pedestrian_011" type="pedestrian_0_pedestrian" depart="198.00">
        <personTrip from="1076090375#0" to="-354897459#0" walkFactor="0.75"/>
    </person>
    <person id="pedestrian_014" type="pedestrian_0_pedestrian" depart="252.00">
        <personTrip from="686886555" to="30900653#1" walkFactor="0.75"/>
    </person>
    <person id="pedestrian_015" type="pedestrian_0_pedestrian" depart="270.00">
        <personTrip from="686881202" to="41808957#0" walkFactor="0.75"/>
    </person>
    <person id="pedestrian_017" type="pedestrian_0_pedestrian" depart="306.00">
        <personTrip from="1103976375" to="274736667#1" walkFactor="0.75"/>
    </person>
    <person id="pedestrian_019" type="pedestrian_0_pedestrian" depart="342.00">
        <personTrip from="686886567#0" to="30900422" walkFactor="0.75"/>
    </person>
    <person id="pedestrian_020" type="pedestrian_0_pedestrian" depart="360.00">
        <personTrip from="39247578#5" to="-213159026" walkFactor="0.75"/>
    </person>
    <person id="pedestrian_021" type="pedestrian_0_pedestrian" depart="378.00">
        <personTrip from="-686886567#1" to="1026433810#1" walkFactor="0.75"/>
    </person>
    <person id="pedestrian_024" type="pedestrian_0_pedestrian" depart="432.00">
        <personTrip from="354897447#3" to="1103420576#1" walkFactor="0.75"/>
    </person>
    <person id="pedestrian_025" type="pedestrian_0_pedestrian" depart="450.00">
        <personTrip from="1103420579#2" to="-41808951#6" walkFactor="0.75"/>
    </person>
    <person id="pedestrian_026" type="pedestrian_0_pedestrian" depart="468.00">
        <personTrip from="1024301354" to="778526396#0" walkFactor="0.75"/>
    </person>
    <person id="pedestrian_029" type="pedestrian_0_pedestrian" depart="522.00">
        <personTrip from="-354897459#6" to="1117761258" walkFactor="0.75"/>
    </person>
    <person id="pedestrian_031" type="pedestrian_0_pedestrian" depart="558.00">
        <personTrip from="284653194#2" to="39247570#0" walkFactor="0.75"/>
    </person>
    <person id="pedestrian_032" type="pedestrian_0_pedestrian" depart="576.00">
        <personTrip from="686886551#1" to="608254627#0" walkFactor="0.75"/>
    </person>
    <person id="pedestrian_035" type="pedestrian_0_pedestrian" depart="630.00">
        <personTrip from="-41808957#0" to="847972807#2" walkFactor="0.75"/>
    </person>
    <person id="pedestrian_038" type="pedestrian_0_pedestrian" depart="684.00">
        <personTrip from="737809019#2" to="219899008#2" walkFactor="0.75"/>
    </person>
    <person id="pedestrian_039" type="pedestrian_0_pedestrian" depart="702.00">
        <personTrip from="1024301353#1" to="1003134362#1" walkFactor="0.75"/>
    </person>
    <person id="pedestrian_040" type="pedestrian_0_pedestrian" depart="720.00">
        <personTrip from="30900227" to="1024301352" walkFactor="0.75"/>
    </person>
    <person id="pedestrian_041" type="pedestrian_0_pedestrian" depart="738.00">
        <personTrip from="30900479#1" to="686886587#0" walkFactor="0.75"/>
    </person>
    <person id="pedestrian_043" type="pedestrian_0_pedestrian" depart="774.00">
        <personTrip from="983316290" to="261959632" walkFactor="0.75"/>
    </person>
    <person id="pedestrian_046" type="pedestrian_0_pedestrian" depart="828.00">
        <personTrip from="686881194#0" to="213159012#7" walkFactor="0.75"/>
    </person>
    <person id="pedestrian_047" type="pedestrian_0_pedestrian" depart="846.00">
        <personTrip from="-23903803#5" to="1117815313" walkFactor="0.75"/>
    </person>
    <person id="pedestrian_048" type="pedestrian_0_pedestrian" depart="864.00">
        <personTrip from="976026779#0" to="263820508#1" walkFactor="0.75"/>
    </person>
    <person id="pedestrian_049" type="pedestrian_0_pedestrian" depart="882.00">
        <personTrip from="975979458#2" to="686886565" walkFactor="0.75"/>
    </person>
    <person id="pedestrian_050" type="pedestrian_0_pedestrian" depart="900.00">
        <personTrip from="-1103420576#1" to="41808951#2" walkFactor="0.75"/>
    </person>
    <person id="pedestrian_052" type="pedestrian_0_pedestrian" depart="936.00">
        <personTrip from="1024301354" to="354897454" walkFactor="0.75"/>
    </person>
    <person id="pedestrian_055" type="pedestrian_0_pedestrian" depart="990.00">
        <personTrip from="686886572#2" to="1024301353#0" walkFactor="0.75"/>
    </person>
    <person id="pedestrian_057" type="pedestrian_0_pedestrian" depart="1026.00">
        <personTrip from="712264648" to="686886570#1" walkFactor="0.75"/>
    </person>
    <person id="pedestrian_058" type="pedestrian_0_pedestrian" depart="1044.00">
        <personTrip from="1026436364" to="354897451#1" walkFactor="0.75"/>
    </person>
    <person id="pedestrian_063" type="pedestrian_0_pedestrian" depart="1134.00">
        <personTrip from="-1103420583#0" to="754203892#0" walkFactor="0.75"/>
    </person>
    <person id="pedestrian_064" type="pedestrian_0_pedestrian" depart="1152.00">
        <personTrip from="686886574#1" to="686886545#3" walkFactor="0.75"/>
    </person>
    <person id="pedestrian_066" type="pedestrian_0_pedestrian" depart="1188.00">
        <personTrip from="686886574#1" to="847976228" walkFactor="0.75"/>
    </person>
    <person id="pedestrian_068" type="pedestrian_0_pedestrian" depart="1224.00">
        <personTrip from="-259886131#1" to="584181260#0" walkFactor="0.75"/>
    </person>
    <person id="pedestrian_070" type="pedestrian_0_pedestrian" depart="1260.00">
        <personTrip from="23714277#4" to="27282359#1" walkFactor="0.75"/>
    </person>
    <person id="pedestrian_071" type="pedestrian_0_pedestrian" depart="1278.00">
        <personTrip from="1024301353#1" to="686886570#2" walkFactor="0.75"/>
    </person>
    <person id="pedestrian_072" type="pedestrian_0_pedestrian" depart="1296.00">
        <personTrip from="213159012#7" to="-41808957#1" walkFactor="0.75"/>
    </person>
    <person id="pedestrian_077" type="pedestrian_0_pedestrian" depart="1386.00">
        <personTrip from="-30900419#5" to="-686886560#1" walkFactor="0.75"/>
    </person>
    <person id="pedestrian_079" type="pedestrian_0_pedestrian" depart="1422.00">
        <personTrip from="-778526130" to="-686878717#0" walkFactor="0.75"/>
    </person>
    <person id="pedestrian_080" type="pedestrian_0_pedestrian" depart="1440.00">
        <personTrip from="-259886132#1" to="354897447#0" walkFactor="0.75"/>
    </person>
    <person id="pedestrian_081" type="pedestrian_0_pedestrian" depart="1458.00">
        <personTrip from="-712263844" to="686891010#0" walkFactor="0.75"/>
    </person>
    <person id="pedestrian_082" type="pedestrian_0_pedestrian" depart="1476.00">
        <personTrip from="686886563" to="-259886132#1" walkFactor="0.75"/>
    </person>
    <person id="pedestrian_085" type="pedestrian_0_pedestrian" depart="1530.00">
        <personTrip from="778526131" to="30900414#1" walkFactor="0.75"/>
    </person>
    <person id="pedestrian_086" type="pedestrian_0_pedestrian" depart="1548.00">
        <personTrip from="225420970#4" to="675706046" walkFactor="0.75"/>
    </person>
    <person id="pedestrian_087" type="pedestrian_0_pedestrian" depart="1566.00">
        <personTrip from="686881204" to="-354897511" walkFactor="0.75"/>
    </person>
    <person id="pedestrian_088" type="pedestrian_0_pedestrian" depart="1584.00">
        <personTrip from="-263820512#1" to="213159020" walkFactor="0.75"/>
    </person>
    <person id="pedestrian_089" type="pedestrian_0_pedestrian" depart="1602.00">
        <personTrip from="213159012#8" to="220299970#2" walkFactor="0.75"/>
    </person>
    <person id="pedestrian_090" type="pedestrian_0_pedestrian" depart="1620.00">
        <personTrip from="41808954" to="354897503#3" walkFactor="0.75"/>
    </person>
    <person id="pedestrian_091" type="pedestrian_0_pedestrian" depart="1638.00">
        <personTrip from="976024756" to="-263820515#0" walkFactor="0.75"/>
    </person>
    <person id="pedestrian_093" type="pedestrian_0_pedestrian" depart="1674.00">
        <personTrip from="686886567#0" to="1003134363#1" walkFactor="0.75"/>
    </person>
    <person id="pedestrian_094" type="pedestrian_0_pedestrian" depart="1692.00">
        <personTrip from="-354897511" to="213159035#0" walkFactor="0.75"/>
    </person>
    <person id="pedestrian_096" type="pedestrian_0_pedestrian" depart="1728.00">
        <personTrip from="1003134363#2" to="754203890" walkFactor="0.75"/>
    </person>
    <person id="pedestrian_097" type="pedestrian_0_pedestrian" depart="1746.00">
        <personTrip from="213159032#2" to="686886565" walkFactor="0.75"/>
    </person>
    <person id="pedestrian_098" type="pedestrian_0_pedestrian" depart="1764.00">
        <personTrip from="27282359#1" to="-220299970#2" walkFactor="0.75"/>
    </person>
    <person id="pedestrian_099" type="pedestrian_0_pedestrian" depart="1782.00">
        <personTrip from="998027138" to="686886548#1" walkFactor="0.75"/>
    </person>
    <person id="pedestrian_0100" type="pedestrian_0_pedestrian" depart="1800.00">
        <personTrip from="975979452" to="754203891#1" walkFactor="0.75"/>
    </person>
    <person id="pedestrian_0101" type="pedestrian_0_pedestrian" depart="1818.00">
        <personTrip from="686886556#0" to="-354897465" walkFactor="0.75"/>
    </person>
    <person id="pedestrian_0105" type="pedestrian_0_pedestrian" depart="1890.00">
        <personTrip from="1024301353#1" to="675706046" walkFactor="0.75"/>
    </person>
    <person id="pedestrian_0106" type="pedestrian_0_pedestrian" depart="1908.00">
        <personTrip from="213159036#3" to="213159012#7" walkFactor="0.75"/>
    </person>
    <person id="pedestrian_0108" type="pedestrian_0_pedestrian" depart="1944.00">
        <personTrip from="284653194#1" to="41808951#0" walkFactor="0.75"/>
    </person>
    <person id="pedestrian_0109" type="pedestrian_0_pedestrian" depart="1962.00">
        <personTrip from="-354897454" to="1026436363" walkFactor="0.75"/>
    </person>
    <person id="pedestrian_0110" type="pedestrian_0_pedestrian" depart="1980.00">
        <personTrip from="975979452" to="30900453#0" walkFactor="0.75"/>
    </person>
    <person id="pedestrian_0112" type="pedestrian_0_pedestrian" depart="2016.00">
        <personTrip from="-23903803#0" to="30900479#0" walkFactor="0.75"/>
    </person>
    <person id="pedestrian_0113" type="pedestrian_0_pedestrian" depart="2034.00">
        <personTrip from="261959618" to="686886558#0" walkFactor="0.75"/>
    </person>
    <person id="pedestrian_0114" type="pedestrian_0_pedestrian" depart="2052.00">
        <personTrip from="-354897459#2" to="975927445#1" walkFactor="0.75"/>
    </person>
    <person id="pedestrian_0115" type="pedestrian_0_pedestrian" depart="2070.00">
        <personTrip from="-261959630#1" to="-354897503#5" walkFactor="0.75"/>
    </person>
    <person id="pedestrian_0116" type="pedestrian_0_pedestrian" depart="2088.00">
        <personTrip from="30900598#1" to="354897503#5" walkFactor="0.75"/>
    </person>
    <person id="pedestrian_0117" type="pedestrian_0_pedestrian" depart="2106.00">
        <personTrip from="-975927445#0" to="-30900419#4" walkFactor="0.75"/>
    </person>
    <person id="pedestrian_0118" type="pedestrian_0_pedestrian" depart="2124.00">
        <personTrip from="686886581#0" to="1003134362#1" walkFactor="0.75"/>
    </person>
    <person id="pedestrian_0120" type="pedestrian_0_pedestrian" depart="2160.00">
        <personTrip from="213159012#4" to="30900479#0" walkFactor="0.75"/>
    </person>
    <person id="pedestrian_0122" type="pedestrian_0_pedestrian" depart="2196.00">
        <personTrip from="-41808951#2" to="41808947#1" walkFactor="0.75"/>
    </person>
    <person id="pedestrian_0124" type="pedestrian_0_pedestrian" depart="2232.00">
        <personTrip from="354897503#2" to="1026436365#1" walkFactor="0.75"/>
    </person>
    <person id="pedestrian_0126" type="pedestrian_0_pedestrian" depart="2268.00">
        <personTrip from="-259886132#2" to="219899008#1" walkFactor="0.75"/>
    </person>
    <person id="pedestrian_0129" type="pedestrian_0_pedestrian" depart="2322.00">
        <personTrip from="1024301353#1" to="754203895" walkFactor="0.75"/>
    </person>
    <person id="pedestrian_0130" type="pedestrian_0_pedestrian" depart="2340.00">
        <personTrip from="686886576#1" to="686886576#0" walkFactor="0.75"/>
    </person>
    <person id="pedestrian_0131" type="pedestrian_0_pedestrian" depart="2358.00">
        <personTrip from="1103420579#2" to="-354897459#2" walkFactor="0.75"/>
    </person>
    <person id="pedestrian_0132" type="pedestrian_0_pedestrian" depart="2376.00">
        <personTrip from="686886545#4" to="39247578#4" walkFactor="0.75"/>
    </person>
    <person id="pedestrian_0133" type="pedestrian_0_pedestrian" depart="2394.00">
        <personTrip from="30901568#4" to="976026765" walkFactor="0.75"/>
    </person>
    <person id="pedestrian_0134" type="pedestrian_0_pedestrian" depart="2412.00">
        <personTrip from="354897467" to="-1092392561" walkFactor="0.75"/>
    </person>
    <person id="pedestrian_0135" type="pedestrian_0_pedestrian" depart="2430.00">
        <personTrip from="686881210#1" to="1026436365#0" walkFactor="0.75"/>
    </person>
    <person id="pedestrian_0139" type="pedestrian_0_pedestrian" depart="2502.00">
        <personTrip from="1024301359#0" to="30900695#0" walkFactor="0.75"/>
    </person>
    <person id="pedestrian_0140" type="pedestrian_0_pedestrian" depart="2520.00">
        <personTrip from="41808947#2" to="-41808951#1" walkFactor="0.75"/>
    </person>
    <person id="pedestrian_0141" type="pedestrian_0_pedestrian" depart="2538.00">
        <personTrip from="354897447#2" to="1024301353#0" walkFactor="0.75"/>
    </person>
    <person id="pedestrian_0142" type="pedestrian_0_pedestrian" depart="2556.00">
        <personTrip from="23903803#6" to="686891010#0" walkFactor="0.75"/>
    </person>
    <person id="pedestrian_0145" type="pedestrian_0_pedestrian" depart="2610.00">
        <personTrip from="-1024301355#1" to="608248543#1" walkFactor="0.75"/>
    </person>
    <person id="pedestrian_0146" type="pedestrian_0_pedestrian" depart="2628.00">
        <personTrip from="354897449" to="1024301351" walkFactor="0.75"/>
    </person>
    <person id="pedestrian_0147" type="pedestrian_0_pedestrian" depart="2646.00">
        <personTrip from="484412395#0" to="274736667#1" walkFactor="0.75"/>
    </person>
    <person id="pedestrian_0148" type="pedestrian_0_pedestrian" depart="2664.00">
        <personTrip from="213159015" to="-1103420575#0" walkFactor="0.75"/>
    </person>
    <person id="pedestrian_0149" type="pedestrian_0_pedestrian" depart="2682.00">
        <personTrip from="-261959620#0" to="686886578#0" walkFactor="0.75"/>
    </person>
    <person id="pedestrian_0151" type="pedestrian_0_pedestrian" depart="2718.00">
        <personTrip from="686886548#0" to="30900471" walkFactor="0.75"/>
    </person>
    <person id="pedestrian_0154" type="pedestrian_0_pedestrian" depart="2772.00">
        <personTrip from="686881194#4" to="686886565" walkFactor="0.75"/>
    </person>
    <person id="pedestrian_0155" type="pedestrian_0_pedestrian" depart="2790.00">
        <personTrip from="686886587#1" to="-41808951#6" walkFactor="0.75"/>
    </person>
    <person id="pedestrian_0157" type="pedestrian_0_pedestrian" depart="2826.00">
        <personTrip from="670297118" to="686886578#1" walkFactor="0.75"/>
    </person>
    <person id="pedestrian_0159" type="pedestrian_0_pedestrian" depart="2862.00">
        <personTrip from="-354897454" to="754203892#1" walkFactor="0.75"/>
    </person>
    <person id="pedestrian_0160" type="pedestrian_0_pedestrian" depart="2880.00">
        <personTrip from="686886569#0" to="976016571#2" walkFactor="0.75"/>
    </person>
    <person id="pedestrian_0161" type="pedestrian_0_pedestrian" depart="2898.00">
        <personTrip from="686881206#1" to="686886576#1" walkFactor="0.75"/>
    </person>
    <person id="pedestrian_0162" type="pedestrian_0_pedestrian" depart="2916.00">
        <personTrip from="-1245828542" to="437769494#2" walkFactor="0.75"/>
    </person>
    <person id="pedestrian_0164" type="pedestrian_0_pedestrian" depart="2952.00">
        <personTrip from="686881196#1" to="686886569#0" walkFactor="0.75"/>
    </person>
    <person id="pedestrian_0165" type="pedestrian_0_pedestrian" depart="2970.00">
        <personTrip from="686881206#1" to="1024301354" walkFactor="0.75"/>
    </person>
    <person id="pedestrian_0166" type="pedestrian_0_pedestrian" depart="2988.00">
        <personTrip from="686878717#0" to="-27282352#7" walkFactor="0.75"/>
    </person>
    <person id="pedestrian_0167" type="pedestrian_0_pedestrian" depart="3006.00">
        <personTrip from="686886570#2" to="686886561" walkFactor="0.75"/>
    </person>
    <person id="pedestrian_0168" type="pedestrian_0_pedestrian" depart="3024.00">
        <personTrip from="-686886558#1" to="686881210#1" walkFactor="0.75"/>
    </person>
    <person id="pedestrian_0169" type="pedestrian_0_pedestrian" depart="3042.00">
        <personTrip from="219899012#0" to="1028089846" walkFactor="0.75"/>
    </person>
    <person id="pedestrian_0170" type="pedestrian_0_pedestrian" depart="3060.00">
        <personTrip from="686881194#3" to="-686886567#1" walkFactor="0.75"/>
    </person>
    <person id="pedestrian_0171" type="pedestrian_0_pedestrian" depart="3078.00">
        <personTrip from="-1117815311#2" to="-39247568" walkFactor="0.75"/>
    </person>
    <person id="pedestrian_0181" type="pedestrian_0_pedestrian" depart="3258.00">
        <personTrip from="30900695#1" to="261959633#2" walkFactor="0.75"/>
    </person>
    <person id="pedestrian_0182" type="pedestrian_0_pedestrian" depart="3276.00">
        <personTrip from="1154235456#1" to="30900419#5" walkFactor="0.75"/>
    </person>
    <person id="pedestrian_0183" type="pedestrian_0_pedestrian" depart="3294.00">
        <personTrip from="1024301347" to="39247578#8" walkFactor="0.75"/>
    </person>
    <person id="pedestrian_0184" type="pedestrian_0_pedestrian" depart="3312.00">
        <personTrip from="-1024301355#0" to="754203891#0" walkFactor="0.75"/>
    </person>
    <person id="pedestrian_0186" type="pedestrian_0_pedestrian" depart="3348.00">
        <personTrip from="484412395#1" to="354897503#1" walkFactor="0.75"/>
    </person>
    <person id="pedestrian_0187" type="pedestrian_0_pedestrian" depart="3366.00">
        <personTrip from="1103420576#1" to="-259886132#0" walkFactor="0.75"/>
    </person>
    <person id="pedestrian_0190" type="pedestrian_0_pedestrian" depart="3420.00">
        <personTrip from="41808951#1" to="1026436365#1" walkFactor="0.75"/>
    </person>
    <person id="pedestrian_0194" type="pedestrian_0_pedestrian" depart="3492.00">
        <personTrip from="847972807#0" to="354897506" walkFactor="0.75"/>
    </person>
    <person id="pedestrian_0197" type="pedestrian_0_pedestrian" depart="3546.00">
        <personTrip from="-1024301347" to="1026432876" walkFactor="0.75"/>
    </person>
    <person id="pedestrian_0198" type="pedestrian_0_pedestrian" depart="3564.00">
        <personTrip from="213159018" to="30900453#1" walkFactor="0.75"/>
    </person>
    <person id="pedestrian_0199" type="pedestrian_0_pedestrian" depart="3582.00">
        <personTrip from="354897467" to="220299970#1" walkFactor="0.75"/>
    </person>
    <person id="pedestrian_0201" type="pedestrian_0_pedestrian" depart="3618.00">
        <personTrip from="225420970#4" to="686887735#0" walkFactor="0.75"/>
    </person>
    <person id="pedestrian_0203" type="pedestrian_0_pedestrian" depart="3654.00">
        <personTrip from="-263820503#1" to="261959637" walkFactor="0.75"/>
    </person>
    <person id="pedestrian_0205" type="pedestrian_0_pedestrian" depart="3690.00">
        <personTrip from="686881210#2" to="572478319#0" walkFactor="0.75"/>
    </person>
    <person id="pedestrian_0206" type="pedestrian_0_pedestrian" depart="3708.00">
        <personTrip from="354897503#3" to="-686886560#1" walkFactor="0.75"/>
    </person>
    <person id="pedestrian_0207" type="pedestrian_0_pedestrian" depart="3726.00">
        <personTrip from="-39247570#4" to="-1245828542" walkFactor="0.75"/>
    </person>
    <person id="pedestrian_0208" type="pedestrian_0_pedestrian" depart="3744.00">
        <personTrip from="1003134362#0" to="23714277#4" walkFactor="0.75"/>
    </person>
    <person id="pedestrian_0209" type="pedestrian_0_pedestrian" depart="3762.00">
        <personTrip from="686886556#1" to="-259886132#2" walkFactor="0.75"/>
    </person>
    <person id="pedestrian_0210" type="pedestrian_0_pedestrian" depart="3780.00">
        <personTrip from="213159012#1" to="326595332" walkFactor="0.75"/>
    </person>
    <person id="pedestrian_0211" type="pedestrian_0_pedestrian" depart="3798.00">
        <personTrip from="-39247570#0" to="39247578#0" walkFactor="0.75"/>
    </person>
    <person id="pedestrian_0214" type="pedestrian_0_pedestrian" depart="3852.00">
        <personTrip from="572478319#0" to="608248543#0" walkFactor="0.75"/>
    </person>
    <person id="pedestrian_0215" type="pedestrian_0_pedestrian" depart="3870.00">
        <personTrip from="-27282352#6" to="213159012#9" walkFactor="0.75"/>
    </person>
    <person id="pedestrian_0218" type="pedestrian_0_pedestrian" depart="3924.00">
        <personTrip from="1003134363#1" to="686886556#0" walkFactor="0.75"/>
    </person>
    <person id="pedestrian_0219" type="pedestrian_0_pedestrian" depart="3942.00">
        <personTrip from="219899008#0" to="686881196#1" walkFactor="0.75"/>
    </person>
    <person id="pedestrian_0221" type="pedestrian_0_pedestrian" depart="3978.00">
        <personTrip from="30900598#1" to="847976231" walkFactor="0.75"/>
    </person>
    <person id="pedestrian_0223" type="pedestrian_0_pedestrian" depart="4014.00">
        <personTrip from="41808951#1" to="261959620#1" walkFactor="0.75"/>
    </person>
    <person id="pedestrian_0225" type="pedestrian_0_pedestrian" depart="4050.00">
        <personTrip from="686886587#0" to="484412395#2" walkFactor="0.75"/>
    </person>
    <person id="pedestrian_0226" type="pedestrian_0_pedestrian" depart="4068.00">
        <personTrip from="225420970#5" to="1024301350#2" walkFactor="0.75"/>
    </person>
    <person id="pedestrian_0227" type="pedestrian_0_pedestrian" depart="4086.00">
        <personTrip from="1003134363#0" to="354897451#0" walkFactor="0.75"/>
    </person>
    <person id="pedestrian_0232" type="pedestrian_0_pedestrian" depart="4176.00">
        <personTrip from="263820515#3" to="-30901573#4" walkFactor="0.75"/>
    </person>
    <person id="pedestrian_0234" type="pedestrian_0_pedestrian" depart="4212.00">
        <personTrip from="39247578#6" to="-23903803#5" walkFactor="0.75"/>
    </person>
    <person id="pedestrian_0236" type="pedestrian_0_pedestrian" depart="4248.00">
        <personTrip from="213159012#2" to="-41808951#4" walkFactor="0.75"/>
    </person>
    <person id="pedestrian_0237" type="pedestrian_0_pedestrian" depart="4266.00">
        <personTrip from="213159012#5" to="686891010#0" walkFactor="0.75"/>
    </person>
    <person id="pedestrian_0238" type="pedestrian_0_pedestrian" depart="4284.00">
        <personTrip from="30900479#0" to="39247578#0" walkFactor="0.75"/>
    </person>
    <person id="pedestrian_0239" type="pedestrian_0_pedestrian" depart="4302.00">
        <personTrip from="686886560#1" to="584181260#4" walkFactor="0.75"/>
    </person>
    <person id="pedestrian_0240" type="pedestrian_0_pedestrian" depart="4320.00">
        <personTrip from="1117815311#2" to="-1024301358" walkFactor="0.75"/>
    </person>
    <person id="pedestrian_0241" type="pedestrian_0_pedestrian" depart="4338.00">
        <personTrip from="1092392567" to="572478319#2" walkFactor="0.75"/>
    </person>
    <person id="pedestrian_0243" type="pedestrian_0_pedestrian" depart="4374.00">
        <personTrip from="213159012#4" to="563880732" walkFactor="0.75"/>
    </person>
    <person id="pedestrian_0245" type="pedestrian_0_pedestrian" depart="4410.00">
        <personTrip from="-686886558#0" to="-686878717#0" walkFactor="0.75"/>
    </person>
    <person id="pedestrian_0251" type="pedestrian_0_pedestrian" depart="4518.00">
        <personTrip from="1245828542" to="30900337#1" walkFactor="0.75"/>
    </person>
    <person id="pedestrian_0254" type="pedestrian_0_pedestrian" depart="4572.00">
        <personTrip from="-220299970#1" to="1117761258" walkFactor="0.75"/>
    </person>
    <person id="pedestrian_0256" type="pedestrian_0_pedestrian" depart="4608.00">
        <personTrip from="584181260#1" to="1117761258" walkFactor="0.75"/>
    </person>
    <person id="pedestrian_0257" type="pedestrian_0_pedestrian" depart="4626.00">
        <personTrip from="572478319#1" to="686886545#3" walkFactor="0.75"/>
    </person>
    <person id="pedestrian_0258" type="pedestrian_0_pedestrian" depart="4644.00">
        <personTrip from="1003134363#4" to="-261959633#2" walkFactor="0.75"/>
    </person>
    <person id="pedestrian_0260" type="pedestrian_0_pedestrian" depart="4680.00">
        <personTrip from="998027138" to="1092392565" walkFactor="0.75"/>
    </person>
    <person id="pedestrian_0261" type="pedestrian_0_pedestrian" depart="4698.00">
        <personTrip from="354897461" to="671695616#2" walkFactor="0.75"/>
    </person>
    <person id="pedestrian_0262" type="pedestrian_0_pedestrian" depart="4716.00">
        <personTrip from="354897464" to="572478319#2" walkFactor="0.75"/>
    </person>
    <person id="pedestrian_0263" type="pedestrian_0_pedestrian" depart="4734.00">
        <personTrip from="847976230" to="-39247570#4" walkFactor="0.75"/>
    </person>
    <person id="pedestrian_0264" type="pedestrian_0_pedestrian" depart="4752.00">
        <personTrip from="-1103420584#0" to="-354897451#0" walkFactor="0.75"/>
    </person>
    <person id="pedestrian_0266" type="pedestrian_0_pedestrian" depart="4788.00">
        <personTrip from="30900337#0" to="-686869009" walkFactor="0.75"/>
    </person>
    <person id="pedestrian_0267" type="pedestrian_0_pedestrian" depart="4806.00">
        <personTrip from="39247578#11" to="584181260#5" walkFactor="0.75"/>
    </person>
    <person id="pedestrian_0269" type="pedestrian_0_pedestrian" depart="4842.00">
        <personTrip from="563880732" to="-30900337#0" walkFactor="0.75"/>
    </person>
    <person id="pedestrian_0273" type="pedestrian_0_pedestrian" depart="4914.00">
        <personTrip from="975927444" to="161102891" walkFactor="0.75"/>
    </person>
    <person id="pedestrian_0274" type="pedestrian_0_pedestrian" depart="4932.00">
        <personTrip from="41808947#0" to="-261959620#1" walkFactor="0.75"/>
    </person>
    <person id="pedestrian_0277" type="pedestrian_0_pedestrian" depart="4986.00">
        <personTrip from="686886556#2" to="30900606#3" walkFactor="0.75"/>
    </person>
    <person id="pedestrian_0279" type="pedestrian_0_pedestrian" depart="5022.00">