<?xml version="1.0" encoding="UTF-8"?>

<!-- generated on 2024-04-21 19:28:07 by Eclipse SUMO netedit Version 1.19.0
-->

<routes xmlns:xsi="http://www.w3.org/2001/XMLSchema-instance" xsi:noNamespaceSchemaLocation="http://sumo.dlr.de/xsd/routes_file.xsd">
    <!-- VTypes -->
    <vType id="bus" vClass="bus"/>
    <!-- Routes -->
    <route id="212_forward" edges="1103976375 -1092392561 -1091733346#2 -1091733346#0 517419312#2 -405494696#2 -405494696#0 -670297118 -584181253 584181257 23714295#2 584181256 23792272 932432701 942395523#4 992341626#0 992341626#1">
        <stop busStop="bs_0" duration="20.00"/>
        <stop busStop="bs_2" duration="20.00"/>
        <stop busStop="bs_4" duration="20.00"/>
    </route>
    <route id="212_backward" edges="992341627#2 992341627#3 942395523#6 942395523#7 942395523#0 942395523#1 942395523#2 932432700 -23792272 584181258 23714295#4 23714295#5 23714295#0 23714307 584181253 670297118 405494696#0 405494696#2 517419312#3 517419312#4 517419312#0 517419312#1 1091733346#0 1091733346#2 1092392561 1091733345 1091733347">
        <stop busStop="bs_3" duration="20.00"/>
        <stop busStop="bs_1" duration="20.00"/>
        <stop busStop="bs_17" duration="20.00"/>
    </route>
    <route id="213_backward" edges="1103976375 -1092392561 -1091733346#2 -1091733346#0 517419312#2 -405494696#2 -405494696#0 -670297118 -584181253 584181257 23714295#2 584181256 23792272 932432701 942395523#4 942395523#5 942395523#6 27282352#0 27282352#1 27282352#2 27282352#3 27282352#4 27282352#5 27282352#6 27282352#7 27282352#8 27282384#1 27282384#2 27282384#3 27282384#4 27282384#5 27282384#6 27282384#7 27282358#0 27282358#1 27282358#2 27282358#3 27282358#5 27282358#6 27282358#8 27282358#9 27282358#10 27282358#11 27282358#12 27282358#13 27282358#14 27282358#15 150480531#0 150480531#1 932432705 23714276#5 932432707 -23714277#4 -23714277#3">
        <stop busStop="bs_0" duration="20.00"/>
        <stop busStop="bs_2" duration="20.00"/>
        <stop busStop="bs_4" duration="20.00"/>
        <stop busStop="bs_16" duration="20.00"/>
        <stop busStop="bs_12" duration="20.00"/>
        <stop busStop="bs_11" duration="20.00"/>
        <stop busStop="bs_9" duration="20.00"/>
    </route>
    <route id="213_forward" edges="23714277#3 23714277#4 932432706 23714276#0 23714276#1 23714276#2 23714276#3 932432704 -150480531#1 -150480531#0 -27282358#15 -27282358#14 -27282358#13 -27282358#12 -27282358#11 -27282358#10 -27282358#9 -27282358#8 -27282358#6 -27282358#5 -27282358#3 -27282358#2 -27282358#1 -27282358#0 -27282384#7 -27282384#6 -27282384#5 -27282384#4 -27282384#3 -27282384#2 -27282384#1 -27282384#0 -27282352#7 -27282352#6 -27282352#5 -27282352#4 -27282352#3 -27282352#2 -27282352#1 -27282352#0 942395523#7 942395523#0 942395523#1 942395523#2 932432700 -23792272 584181258 23714295#4 23714295#5 23714295#0 23714307 584181253 670297118 405494696#0 405494696#2 517419312#3 517419312#4 517419312#0 517419312#1 1091733346#0 1091733346#2 1092392561 1091733345 1091733347 1103976375 -1092392561 -1091733346#2 -1091733346#0 517419312#2 517419312#3 517419312#4 194463373#0 194463373#1">
        <stop busStop="bs_10" duration="20.00"/>
        <stop busStop="bs_13" duration="20.00"/>
        <stop busStop="bs_14" duration="20.00"/>
        <stop busStop="bs_15" duration="20.00"/>
        <stop busStop="bs_3" duration="20.00"/>
        <stop busStop="bs_1" duration="20.00"/>
        <stop busStop="bs_17" duration="20.00"/>
    </route>
    <route id="312_backward" edges="992341627#2 992341627#3 942395523#6 942395523#7 23786199#0 23786199#1 23786199#2 23786199#3 27282359#0 27282359#1 27282359#2 27282359#3 27282359#4 27282359#5 27282359#6 27282359#7 27282359#8 -23714280#7 -23714280#6 -23714280#5 -23714280#4 -23714280#3 -23714280#2 -23714280#1 -23714280#0 932432703 23714276#3 932432704 -150480531#1 -150480531#0 -27282358#15 -27282358#14 -27282358#13 -27282358#12 -27282358#11 -27282358#10 -27282358#9 -27282358#8 -27282358#6 -27282358#5 -27282358#3 -27282358#2 -27282358#1 -27282358#0 -27282384#7 -27282384#6 -27282384#5 -27282384#4 -27282384#3 -27282384#2 -27282384#1 -27282384#0 -27282352#7 -27282352#6 -27282352#5 -27282352#4 -27282352#3 -27282352#2 -27282352#1 -27282352#0 942395523#7 942395523#0 942395523#1 942395523#2 932432700 -23792272 584181258 23714295#4 23714295#5 23714295#0 23714307 584181253 670297118 405494696#0 405494696#2 517419312#3 517419312#4 517419312#0 517419312#1 1091733346#0 1091733346#2 1092392561 1091733345 1091733347 1103976375 -1092392561 -1091733346#2 -1091733346#0 517419312#2 517419312#3 517419312#4 194463373#0 194463373#1">
        <stop busStop="bs_6" duration="20.00"/>
        <stop busStop="bs_7" duration="20.00"/>
        <stop busStop="bs_13" duration="20.00"/>
        <stop busStop="bs_14" duration="20.00"/>
        <stop busStop="bs_15" duration="20.00"/>
        <stop busStop="bs_3" duration="20.00"/>
        <stop busStop="bs_1" duration="20.00"/>
        <stop busStop="bs_17" duration="20.00"/>
    </route>
    <route id="312_forward" edges="1103976375 -1092392561 -1091733346#2 -1091733346#0 517419312#2 -405494696#2 -405494696#0 -670297118 -584181253 584181257 23714295#2 584181256 23792272 932432701 942395523#4 942395523#5 942395523#6 27282352#0 27282352#1 27282352#2 27282352#3 27282352#4 27282352#5 27282352#6 27282352#7 27282352#8 27282384#1 27282384#2 27282384#3 27282384#4 27282384#5 27282384#6 27282384#7 27282358#0 27282358#1 27282358#2 27282358#3 27282358#5 27282358#6 27282358#8 27282358#9 27282358#10 27282358#11 27282358#12 27282358#13 27282358#14 27282358#15 150480531#0 150480531#1 932432705 23714276#5 23714276#6 23714276#0 23714276#1 932432702 23714280#0 23714280#1 23714280#2 23714280#3 23714280#4 23714280#5 23714280#6 23714280#7 -27282359#8 -27282359#7 -27282359#6 -27282359#5 -27282359#4 -27282359#3 -27282359#2 -27282359#1 -27282359#0 -23786199#3 -23786199#2 -23786199#1 -23786199#0 942395523#0 942395523#1 942395523#2 942395523#3 942395523#4 992341626#0 992341626#1">
        <stop busStop="bs_0" duration="20.00"/>
        <stop busStop="bs_2" duration="20.00"/>
        <stop busStop="bs_4" duration="20.00"/>
        <stop busStop="bs_16" duration="20.00"/>
        <stop busStop="bs_12" duration="20.00"/>
        <stop busStop="bs_11" duration="20.00"/>
        <stop busStop="bs_8" duration="20.00"/>
        <stop busStop="bs_5" duration="20.00"/>
    </route>
    <!-- Vehicles, persons and containers (sorted by depart) -->
  
    <flow id="bus_312_forward" type="bus" begin="00:00:10" end="24:30:00" route="312_forward" period="600" line="312"/>
    <flow id="bus_312_backward" type="bus" begin="00:00:10" end="24:30:00" route="312_backward" period="600" line="312"/>
    <flow id="bus_213_forward" type="bus" begin="00:00:10" end="24:30:00" route="213_forward" period="600" line="213"/>
    <flow id="bus_213_backward" type="bus" begin="00:00:10" end="24:30:00" route="213_backward" period="600" line="213"/>
    <flow id="bus_212_forward" type="bus" begin="00:00:10" end="24:30:00" route="212_forward" period="600" line="212"/>
    <flow id="bus_212_backward" type="bus" begin="00:00:10" end="24:30:00" route="212_backward" period="600" line="212"/>
</routes>
