<?xml version="1.0" encoding="UTF-8"?>

<!-- generated on 2024-04-19 21:25:02 by Eclipse SUMO netedit Version 1.19.0
<configuration xmlns:xsi="http://www.w3.org/2001/XMLSchema-instance" xsi:noNamespaceSchemaLocation="http://sumo.dlr.de/xsd/neteditConfiguration.xsd">

    <input>
        <sumo-net-file value="C:\Users\tarek.chouaki\teaching\202404_enpc\sumo_project\osm_old.net.xml"/>
    </input>

    <output>
        <output-file value="C:\Users\tarek.chouaki\teaching\202404_enpc\sumo_project\osm_old.net.xml"/>
        <output.street-names value="true"/>
    </output>

    <processing>
        <geometry.min-radius.fix.railways value="false"/>
        <geometry.max-grade.fix value="false"/>
        <offset.disable-normalization value="true"/>
        <lefthand value="0"/>
    </processing>

    <junctions>
        <no-turnarounds value="true"/>
        <junctions.corner-detail value="5"/>
        <junctions.limit-turn-speed value="5.50"/>
        <rectangular-lane-cut value="0"/>
    </junctions>

    <pedestrian>
        <walkingareas value="0"/>
    </pedestrian>

</configuration>
-->

<net version="1.16" junctionCornerDetail="5" limitTurnSpeed="5.50" xmlns:xsi="http://www.w3.org/2001/XMLSchema-instance" xsi:noNamespaceSchemaLocation="http://sumo.dlr.de/xsd/net_file.xsd">

    <location netOffset="-446635.20,-5403377.59" convBoundary="22664.25,5716.04,25476.82,6787.05" origBoundary="2.273095,48.781836,2.619971,48.849373" projParameter="+proj=utm +zone=31 +ellps=WGS84 +datum=WGS84 +units=m +no_defs"/>

    <type id="highway.cycleway" priority="1" numLanes="1" speed="5.56" allow="bicycle" oneway="0" width="2.00"/>
    <type id="highway.footway" priority="1" numLanes="1" speed="2.78" allow="pedestrian" oneway="1" width="2.00"/>
    <type id="highway.path" priority="1" numLanes="1" speed="5.56" allow="pedestrian bicycle" oneway="0" width="2.00"/>
    <type id="highway.pedestrian" priority="1" numLanes="1" speed="2.78" allow="pedestrian" oneway="1" width="2.00"/>
    <type id="highway.residential" priority="3" numLanes="1" speed="13.89" disallow="tram rail_urban rail rail_electric rail_fast ship" oneway="0"/>
    <type id="highway.service" priority="1" numLanes="1" speed="5.56" allow="pedestrian delivery bicycle" oneway="0"/>
    <type id="highway.steps" priority="1" numLanes="1" speed="1.39" allow="pedestrian" oneway="1" width="2.00"/>
    <type id="highway.tertiary" priority="10" numLanes="1" speed="22.22" disallow="tram rail_urban rail rail_electric rail_fast ship" oneway="0"/>
    <type id="highway.unclassified" priority="4" numLanes="1" speed="13.89" disallow="tram rail_urban rail rail_electric rail_fast ship" oneway="0"/>

    <edge id=":10004562720_0" function="internal">
        <lane id=":10004562720_0_0" index="0" allow="pedestrian delivery bicycle" speed="3.65" length="4.67" shape="22894.50,6638.36 22893.49,6637.34 22893.25,6636.47 22893.80,6635.77 22895.14,6635.22"/>
    </edge>
    <edge id=":10097349137_0" function="internal">
        <lane id=":10097349137_0_0" index="0" allow="pedestrian bicycle" speed="5.49" length="11.51" width="2.00" shape="22875.24,6381.09 22875.37,6383.60 22876.56,6384.06 22878.80,6382.44 22882.11,6378.76"/>
    </edge>
    <edge id=":10097349137_1" function="internal">
        <lane id=":10097349137_1_0" index="0" allow="pedestrian bicycle" speed="7.53" length="10.10" width="2.00" shape="22875.24,6381.09 22876.52,6382.03 22879.51,6383.18 22882.70,6384.21 22884.56,6384.81"/>
    </edge>
    <edge id=":10097349137_2" function="internal">
        <lane id=":10097349137_2_0" index="0" allow="pedestrian bicycle" speed="6.94" length="7.48" width="2.00" shape="22869.08,6386.49 22870.71,6385.78 22871.95,6384.61 22872.79,6382.97 22873.25,6380.86"/>
    </edge>
    <edge id=":10097349137_3" function="internal">
        <lane id=":10097349137_3_0" index="0" disallow="tram rail_urban rail rail_electric rail_fast ship" speed="15.29" length="15.47" shape="22869.08,6386.49 22873.76,6385.02 22877.16,6383.36 22879.77,6381.34 22882.11,6378.76"/>
    </edge>
    <edge id=":10097349137_4" function="internal">
        <lane id=":10097349137_4_0" index="0" disallow="tram rail_urban rail rail_electric rail_fast ship" speed="15.35" length="15.46" shape="22869.08,6386.49 22873.66,6384.98 22876.95,6383.80 22880.17,6383.55 22884.56,6384.81"/>
        <lane id=":10097349137_4_1" index="1" disallow="tram rail_urban rail rail_electric rail_fast ship" speed="14.72" length="15.46" shape="22869.89,6389.58 22874.10,6388.21 22877.11,6387.14 22880.07,6386.91 22884.10,6388.08"/>
    </edge>
    <edge id=":10129910405_0" function="internal">
        <lane id=":10129910405_0_0" index="0" allow="bicycle" speed="2.89" length="2.92" width="2.00" shape="22810.38,6760.07 22810.98,6760.74 22811.10,6761.29 22810.73,6761.71 22809.88,6762.01"/>
    </edge>
    <edge id=":10129910406_0" function="internal">
        <lane id=":10129910406_0_0" index="0" allow="bicycle" speed="5.56" length="6.21" width="2.00" shape="22809.71,6761.96 22803.70,6760.39"/>
    </edge>
    <edge id=":10129910406_1" function="internal">
        <lane id=":10129910406_1_0" index="0" allow="bicycle" speed="2.89" length="2.92" width="2.00" shape="22809.71,6761.96 22809.11,6761.29 22808.99,6760.74 22809.36,6760.32 22810.21,6760.03"/>
    </edge>
    <edge id=":10129910406_2" function="internal">
        <lane id=":10129910406_2_0" index="0" allow="bicycle" speed="4.74" length="4.14" width="2.00" shape="22808.37,6756.85 22808.29,6758.01 22808.56,6758.93 22809.21,6759.60 22810.21,6760.03"/>
    </edge>
    <edge id=":10129910406_3" function="internal">
        <lane id=":10129910406_3_0" index="0" allow="bicycle" speed="5.28" length="5.82" width="2.00" shape="22807.20,6756.61 22806.63,6758.52 22805.86,6759.78 22804.88,6760.41 22803.70,6760.39"/>
    </edge>
    <edge id=":10129910406_4" function="internal">
        <lane id=":10129910406_4_0" index="0" allow="bicycle" speed="5.56" length="6.21" width="2.00" shape="22804.21,6758.46 22810.21,6760.03"/>
    </edge>
    <edge id=":10129910406_5" function="internal">
        <lane id=":10129910406_5_0" index="0" allow="bicycle" speed="2.89" length="2.92" width="2.00" shape="22804.21,6758.46 22804.80,6759.13 22804.92,6759.68 22804.55,6760.10 22803.70,6760.39"/>
    </edge>
    <edge id=":10129910407_0" function="internal">
        <lane id=":10129910407_0_0" index="0" allow="bicycle" speed="2.89" length="2.92" width="2.00" shape="22801.58,6759.84 22800.98,6759.16 22800.87,6758.61 22801.23,6758.19 22802.09,6757.90"/>
    </edge>
    <edge id=":10223563722_0" function="internal">
        <lane id=":10223563722_0_0" index="0" allow="bicycle" speed="5.56" length="5.08" width="2.00" shape="22845.52,6672.55 22840.47,6672.06"/>
    </edge>
    <edge id=":10223563722_1" function="internal">
        <lane id=":10223563722_1_0" index="0" allow="bicycle" speed="2.89" length="1.28" width="2.00" shape="22845.52,6672.55 22844.80,6672.00 22844.66,6671.65"/>
    </edge>
    <edge id=":10223563722_4" function="internal">
        <lane id=":10223563722_4_0" index="0" allow="bicycle" speed="2.89" length="1.64" width="2.00" shape="22844.66,6671.65 22844.59,6671.49 22844.87,6671.00 22845.65,6670.56"/>
    </edge>
    <edge id=":10223563722_2" function="internal">
        <lane id=":10223563722_2_0" index="0" allow="bicycle" speed="5.56" length="4.81" width="2.00" shape="22841.04,6669.54 22841.84,6670.05 22843.17,6670.34 22844.58,6670.49 22845.65,6670.56"/>
    </edge>
    <edge id=":10223563722_3" function="internal">
        <lane id=":10223563722_3_0" index="0" allow="bicycle" speed="3.64" length="1.76" width="2.00" shape="22841.04,6669.54 22841.84,6670.38 22841.98,6670.95"/>
    </edge>
    <edge id=":10223563722_5" function="internal">
        <lane id=":10223563722_5_0" index="0" allow="bicycle" speed="3.64" length="2.03" width="2.00" shape="22841.98,6670.95 22842.01,6671.09 22841.56,6671.65 22840.47,6672.06"/>
    </edge>
    <edge id=":10223563738_0" function="internal">
        <lane id=":10223563738_0_0" index="0" allow="bicycle" speed="5.15" length="1.13" width="2.00" shape="22999.71,6695.50 23000.81,6695.25"/>
    </edge>
    <edge id=":10223563738_1" function="internal">
        <lane id=":10223563738_1_0" index="0" allow="pedestrian bicycle" speed="2.89" length="0.16" width="2.00" shape="22999.71,6695.50 22999.56,6695.47"/>
    </edge>
    <edge id=":10223563738_3" function="internal">
        <lane id=":10223563738_3_0" index="0" allow="pedestrian bicycle" speed="2.89" length="2.77" width="2.00" shape="22999.56,6695.47 22998.83,6695.33 22998.40,6694.97 22998.43,6694.41 22998.93,6693.65"/>
    </edge>
    <edge id=":10223563738_2" function="internal">
        <lane id=":10223563738_2_0" index="0" allow="bicycle" speed="5.56" length="3.77" width="2.00" shape="23002.68,6693.32 22998.93,6693.65"/>
    </edge>
    <edge id=":10903620838_0" function="internal">
        <lane id=":10903620838_0_0" index="0" allow="bicycle" speed="3.04" length="3.39" width="2.00" shape="22809.06,6687.54 22808.35,6688.30 22807.72,6688.49 22807.20,6688.10 22806.78,6687.15"/>
    </edge>
    <edge id=":11581892338_0" function="internal">
        <lane id=":11581892338_0_0" index="0" allow="pedestrian bicycle" speed="5.56" length="7.00" width="2.00" shape="22923.58,6123.64 22916.86,6125.61"/>
    </edge>
    <edge id=":11581892338_1" function="internal">
        <lane id=":11581892338_1_0" index="0" allow="pedestrian bicycle" speed="5.56" length="7.28" width="2.00" shape="22923.58,6123.64 22921.66,6123.91 22920.07,6123.49 22918.83,6122.37 22917.92,6120.57"/>
    </edge>
    <edge id=":11581892338_2" function="internal">
        <lane id=":11581892338_2_0" index="0" allow="pedestrian bicycle" speed="2.89" length="2.92" width="2.00" shape="22923.58,6123.64 22922.72,6123.37 22922.34,6122.96 22922.44,6122.41 22923.02,6121.72"/>
    </edge>
    <edge id=":11581892338_3" function="internal">
        <lane id=":11581892338_3_0" index="0" allow="pedestrian bicycle" speed="4.57" length="4.16" width="2.00" shape="22919.81,6119.92 22920.33,6120.97 22921.04,6121.62 22921.94,6121.87 22923.02,6121.72"/>
    </edge>
    <edge id=":11581892338_4" function="internal">
        <lane id=":11581892338_4_0" index="0" allow="pedestrian bicycle" speed="5.56" length="7.39" width="2.00" shape="22919.81,6119.92 22920.19,6121.92 22919.83,6123.53 22918.72,6124.76 22916.86,6125.61"/>
    </edge>
    <edge id=":11581892338_5" function="internal">
        <lane id=":11581892338_5_0" index="0" allow="pedestrian bicycle" speed="2.89" length="2.92" width="2.00" shape="22919.81,6119.92 22919.58,6120.79 22919.19,6121.19 22918.64,6121.11 22917.92,6120.57"/>
    </edge>
    <edge id=":11581892338_6" function="internal">
        <lane id=":11581892338_6_0" index="0" allow="pedestrian bicycle" speed="4.38" length="4.05" width="2.00" shape="22916.30,6123.69 22917.32,6123.23 22917.93,6122.55 22918.13,6121.66 22917.92,6120.57"/>
    </edge>
    <edge id=":11581892338_7" function="internal">
        <lane id=":11581892338_7_0" index="0" allow="pedestrian bicycle" speed="5.56" length="7.00" width="2.00" shape="22916.30,6123.69 22923.02,6121.72"/>
    </edge>
    <edge id=":11581892338_8" function="internal">
        <lane id=":11581892338_8_0" index="0" allow="pedestrian bicycle" speed="2.89" length="2.92" width="2.00" shape="22916.30,6123.69 22917.16,6123.96 22917.54,6124.37 22917.44,6124.92 22916.86,6125.61"/>
    </edge>
    <edge id=":11581892339_0" function="internal">
        <lane id=":11581892339_0_0" index="0" allow="pedestrian bicycle" speed="2.89" length="2.92" width="2.00" shape="22904.60,6081.68 22904.83,6080.81 22905.23,6080.41 22905.78,6080.49 22906.50,6081.04"/>
    </edge>
    <edge id=":1310597169_0" function="internal">
        <lane id=":1310597169_0_0" index="0" allow="pedestrian bicycle" speed="5.56" length="10.49" width="2.00" shape="23261.10,6285.91 23255.96,6276.77"/>
    </edge>
    <edge id=":1310597169_1" function="internal">
        <lane id=":1310597169_1_0" index="0" allow="pedestrian bicycle" speed="6.70" length="7.95" width="2.00" shape="23261.10,6285.91 23260.68,6284.37 23260.97,6282.70 23261.98,6280.90 23263.71,6278.96"/>
    </edge>
    <edge id=":1310597169_2" function="internal">
        <lane id=":1310597169_2_0" index="0" allow="pedestrian bicycle" speed="2.89" length="2.92" width="2.00" shape="23261.10,6285.91 23261.19,6285.01 23261.51,6284.55 23262.07,6284.54 23262.87,6284.96"/>
    </edge>
    <edge id=":1310597169_3" function="internal">
        <lane id=":1310597169_3_0" index="0" allow="pedestrian bicycle" speed="4.44" length="4.74" width="2.00" shape="23257.68,6275.75 23258.56,6276.90 23259.49,6277.43 23260.47,6277.35 23261.49,6276.65"/>
    </edge>
    <edge id=":1310597169_4" function="internal">
        <lane id=":1310597169_4_0" index="0" allow="pedestrian bicycle" speed="5.56" length="10.57" width="2.00" shape="23257.68,6275.75 23262.87,6284.96"/>
    </edge>
    <edge id=":1310597169_5" function="internal">
        <lane id=":1310597169_5_0" index="0" allow="pedestrian bicycle" speed="2.89" length="2.92" width="2.00" shape="23257.68,6275.75 23257.63,6276.65 23257.32,6277.12 23256.77,6277.16 23255.96,6276.77"/>
    </edge>
    <edge id=":1310597169_6" function="internal">
        <lane id=":1310597169_6_0" index="0" allow="pedestrian bicycle" speed="5.97" length="6.32" width="2.00" shape="23255.20,6282.48 23256.26,6281.21 23256.74,6279.84 23256.64,6278.36 23255.96,6276.77"/>
    </edge>
    <edge id=":1310597169_7" function="internal">
        <lane id=":1310597169_7_0" index="0" disallow="tram rail_urban rail rail_electric rail_fast ship" speed="13.89" length="8.63" shape="23255.20,6282.48 23261.49,6276.65"/>
        <lane id=":1310597169_7_1" index="1" disallow="tram rail_urban rail rail_electric rail_fast ship" speed="13.89" length="8.63" shape="23257.33,6284.86 23263.71,6278.96"/>
    </edge>
    <edge id=":1310597169_9" function="internal">
        <lane id=":1310597169_9_0" index="0" allow="pedestrian bicycle" speed="5.31" length="6.67" width="2.00" shape="23257.33,6284.86 23259.07,6283.63 23260.57,6283.23 23261.83,6283.68 23262.87,6284.96"/>
    </edge>
    <edge id=":1983508284_0" function="internal">
        <lane id=":1983508284_0_0" index="0" allow="pedestrian delivery bicycle" speed="8.33" length="5.00" shape="23109.15,6222.71 23114.05,6221.75"/>
    </edge>
    <edge id=":1983508293_0" function="internal">
        <lane id=":1983508293_0_0" index="0" disallow="tram rail_urban rail rail_electric rail_fast ship" speed="13.89" length="6.24" shape="22970.31,6256.62 22968.97,6250.53"/>
    </edge>
    <edge id=":1983508293_1" function="internal">
        <lane id=":1983508293_1_0" index="0" allow="pedestrian delivery bicycle" speed="6.07" length="1.69" shape="22970.31,6256.62 22970.40,6255.20 22970.56,6254.99"/>
    </edge>
    <edge id=":1983508293_4" function="internal">
        <lane id=":1983508293_4_0" index="0" allow="pedestrian delivery bicycle" speed="6.07" length="6.09" shape="22970.56,6254.99 22971.34,6253.99 22973.14,6253.00 22975.80,6252.23"/>
    </edge>
    <edge id=":1983508293_2" function="internal">
        <lane id=":1983508293_2_0" index="0" allow="pedestrian delivery bicycle" speed="5.05" length="5.01" shape="22972.10,6249.85 22972.58,6251.14 22973.35,6251.96 22974.42,6252.32 22975.80,6252.23"/>
    </edge>
    <edge id=":1983508293_3" function="internal">
        <lane id=":1983508293_3_0" index="0" disallow="tram rail_urban rail rail_electric rail_fast ship" speed="13.89" length="6.21" shape="22972.10,6249.85 22973.43,6255.92"/>
    </edge>
    <edge id=":1983517653_0" function="internal">
        <lane id=":1983517653_0_0" index="0" allow="pedestrian delivery bicycle" speed="6.30" length="6.49" shape="23197.78,6212.13 23196.90,6211.17 23195.62,6210.64 23193.93,6210.53 23191.84,6210.84"/>
    </edge>
    <edge id=":1983517653_1" function="internal">
        <lane id=":1983517653_1_0" index="0" disallow="tram rail_urban rail rail_electric rail_fast ship" speed="13.89" length="9.74" shape="23197.78,6212.13 23192.85,6203.72"/>
    </edge>
    <edge id=":1983517653_2" function="internal">
        <lane id=":1983517653_2_0" index="0" disallow="tram rail_urban rail rail_electric rail_fast ship" speed="13.89" length="9.79" shape="23195.60,6202.09 23200.55,6210.53"/>
    </edge>
    <edge id=":1983517653_3" function="internal">
        <lane id=":1983517653_3_0" index="0" allow="pedestrian delivery bicycle" speed="6.68" length="3.69" shape="23195.60,6202.09 23196.92,6205.25 23196.90,6205.52"/>
    </edge>
    <edge id=":1983517653_7" function="internal">
        <lane id=":1983517653_7_0" index="0" allow="pedestrian delivery bicycle" speed="6.68" length="8.19" shape="23196.90,6205.52 23196.73,6207.76 23195.04,6209.62 23191.84,6210.84"/>
    </edge>
    <edge id=":1983517653_4" function="internal">
        <lane id=":1983517653_4_0" index="0" allow="pedestrian delivery bicycle" speed="4.77" length="5.43" shape="23191.13,6207.72 23192.59,6207.16 23193.37,6206.31 23193.45,6205.17 23192.85,6203.72"/>
    </edge>
    <edge id=":1983517653_5" function="internal">
        <lane id=":1983517653_5_0" index="0" allow="pedestrian delivery bicycle" speed="7.87" length="10.57" shape="23191.13,6207.72 23194.31,6207.31 23196.94,6207.64 23199.02,6208.72 23200.55,6210.53"/>
    </edge>
    <edge id=":1983517653_6" function="internal">
        <lane id=":1983517653_6_0" index="0" allow="pedestrian delivery bicycle" speed="3.65" length="4.67" shape="23191.13,6207.72 23192.48,6208.24 23193.04,6208.93 23192.83,6209.80 23191.84,6210.84"/>
    </edge>
    <edge id=":1983517654_0" function="internal">
        <lane id=":1983517654_0_0" index="0" allow="pedestrian delivery bicycle" speed="6.08" length="7.55" shape="23115.97,6144.03 23115.84,6141.98 23116.39,6140.35 23117.62,6139.16 23119.53,6138.39"/>
    </edge>
    <edge id=":1983517654_1" function="internal">
        <lane id=":1983517654_1_0" index="0" allow="pedestrian delivery bicycle" speed="3.91" length="2.52" shape="23120.29,6141.50 23119.65,6141.76 23119.24,6142.16 23119.06,6142.70 23119.10,6143.38"/>
    </edge>
    <edge id=":1983517656_0" function="internal">
        <lane id=":1983517656_0_0" index="0" allow="pedestrian delivery bicycle" speed="8.33" length="9.46" shape="23138.75,6246.86 23136.78,6237.61"/>
    </edge>
    <edge id=":1983517656_1" function="internal">
        <lane id=":1983517656_1_0" index="0" allow="pedestrian delivery bicycle" speed="6.85" length="3.31" shape="23138.75,6246.86 23138.54,6244.07 23138.71,6243.59"/>
    </edge>
    <edge id=":1983517656_2" function="internal">
        <lane id=":1983517656_2_0" index="0" allow="pedestrian delivery bicycle" speed="3.65" length="1.44" shape="23138.75,6246.86 23139.28,6245.52"/>
    </edge>
    <edge id=":1983517656_9" function="internal">
        <lane id=":1983517656_9_0" index="0" allow="pedestrian delivery bicycle" speed="6.85" length="6.89" shape="23138.71,6243.59 23139.28,6241.89 23140.97,6240.32 23143.60,6239.36"/>
    </edge>
    <edge id=":1983517656_10" function="internal">
        <lane id=":1983517656_10_0" index="0" allow="pedestrian delivery bicycle" speed="3.65" length="3.23" shape="23139.28,6245.52 23139.97,6244.95 23140.84,6245.17 23141.88,6246.17"/>
    </edge>
    <edge id=":1983517656_3" function="internal">
        <lane id=":1983517656_3_0" index="0" allow="pedestrian delivery bicycle" speed="5.03" length="5.01" shape="23144.26,6242.49 23142.97,6242.96 23142.14,6243.73 23141.78,6244.80 23141.88,6246.17"/>
    </edge>
    <edge id=":1983517656_4" function="internal">
        <lane id=":1983517656_4_0" index="0" allow="pedestrian delivery bicycle" speed="6.86" length="10.19" shape="23144.26,6242.49 23141.46,6242.67 23139.29,6241.92 23137.73,6240.23 23136.78,6237.61"/>
    </edge>
    <edge id=":1983517656_5" function="internal">
        <lane id=":1983517656_5_0" index="0" allow="pedestrian delivery bicycle" speed="3.65" length="4.67" shape="23144.26,6242.49 23142.92,6241.95 23142.36,6241.25 23142.59,6240.39 23143.60,6239.36"/>
    </edge>
    <edge id=":1983517656_6" function="internal">
        <lane id=":1983517656_6_0" index="0" allow="pedestrian delivery bicycle" speed="5.04" length="5.02" shape="23139.91,6236.96 23140.38,6238.25 23141.15,6239.08 23142.22,6239.45 23143.60,6239.36"/>
    </edge>
    <edge id=":1983517656_7" function="internal">
        <lane id=":1983517656_7_0" index="0" allow="pedestrian delivery bicycle" speed="8.33" length="9.42" shape="23139.91,6236.96 23141.88,6246.17"/>
    </edge>
    <edge id=":1983517656_8" function="internal">
        <lane id=":1983517656_8_0" index="0" allow="pedestrian delivery bicycle" speed="3.65" length="1.44" shape="23139.91,6236.96 23139.37,6238.30"/>
    </edge>
    <edge id=":1983517656_11" function="internal">
        <lane id=":1983517656_11_0" index="0" allow="pedestrian delivery bicycle" speed="3.65" length="3.23" shape="23139.37,6238.30 23138.67,6238.85 23137.81,6238.62 23136.78,6237.61"/>
    </edge>
    <edge id=":1983517668_0" function="internal">
        <lane id=":1983517668_0_0" index="0" allow="pedestrian delivery bicycle" speed="6.92" length="7.70" shape="23201.35,6281.67 23200.60,6278.81 23199.82,6276.74 23198.99,6275.46 23198.11,6274.96"/>
    </edge>
    <edge id=":1983517668_1" function="internal">
        <lane id=":1983517668_1_0" index="0" allow="pedestrian delivery bicycle" speed="6.78" length="3.36" shape="23201.35,6281.67 23201.12,6278.69 23201.25,6278.34"/>
    </edge>
    <edge id=":1983517668_2" function="internal">
        <lane id=":1983517668_2_0" index="0" allow="pedestrian delivery bicycle" speed="3.65" length="1.44" shape="23201.35,6281.67 23201.87,6280.32"/>
    </edge>
    <edge id=":1983517668_9" function="internal">
        <lane id=":1983517668_9_0" index="0" allow="pedestrian delivery bicycle" speed="6.78" length="7.36" shape="23201.25,6278.34 23201.94,6276.46 23203.79,6274.97 23206.68,6274.23"/>
    </edge>
    <edge id=":1983517668_10" function="internal">
        <lane id=":1983517668_10_0" index="0" allow="pedestrian delivery bicycle" speed="3.65" length="3.23" shape="23201.87,6280.32 23202.56,6279.76 23203.43,6279.98 23204.47,6280.97"/>
    </edge>
    <edge id=":1983517668_3" function="internal">
        <lane id=":1983517668_3_0" index="0" allow="pedestrian delivery bicycle" speed="4.93" length="5.14" shape="23207.02,6277.41 23205.64,6277.77 23204.75,6278.48 23204.36,6279.55 23204.47,6280.97"/>
    </edge>
    <edge id=":1983517668_4" function="internal">
        <lane id=":1983517668_4_0" index="0" allow="pedestrian delivery bicycle" speed="6.95" length="9.38" shape="23207.02,6277.41 23204.34,6277.31 23202.57,6276.58 23200.79,6275.64 23198.11,6274.96"/>
    </edge>
    <edge id=":1983517668_5" function="internal">
        <lane id=":1983517668_5_0" index="0" allow="pedestrian delivery bicycle" speed="3.65" length="4.67" shape="23207.02,6277.41 23205.74,6276.74 23205.26,6275.99 23205.57,6275.15 23206.68,6274.23"/>
    </edge>
    <edge id=":1983517668_6" function="internal">
        <lane id=":1983517668_6_0" index="0" allow="pedestrian delivery bicycle" speed="6.19" length="5.69" shape="23201.57,6272.55 23202.31,6273.45 23203.41,6274.03 23204.87,6274.29 23206.68,6274.23"/>
    </edge>
    <edge id=":1983517668_7" function="internal">
        <lane id=":1983517668_7_0" index="0" allow="pedestrian delivery bicycle" speed="8.33" length="8.96" shape="23201.57,6272.55 23202.78,6274.91 23203.45,6276.60 23203.91,6278.38 23204.47,6280.97"/>
    </edge>
    <edge id=":1983517668_8" function="internal">
        <lane id=":1983517668_8_0" index="0" allow="pedestrian delivery bicycle" speed="4.69" length="2.23" shape="23201.57,6272.55 23201.61,6274.45 23201.45,6274.75"/>
    </edge>
    <edge id=":1983517668_11" function="internal">
        <lane id=":1983517668_11_0" index="0" allow="pedestrian delivery bicycle" speed="4.69" length="3.92" shape="23201.45,6274.75 23201.04,6275.49 23199.88,6275.66 23198.11,6274.96"/>
    </edge>
    <edge id=":1983517669_0" function="internal">
        <lane id=":1983517669_0_0" index="0" allow="pedestrian delivery bicycle" speed="8.33" length="9.35" shape="23123.34,6176.63 23121.21,6167.53"/>
    </edge>
    <edge id=":1983517669_1" function="internal">
        <lane id=":1983517669_1_0" index="0" allow="pedestrian delivery bicycle" speed="6.86" length="3.24" shape="23123.34,6176.63 23123.11,6173.85 23123.25,6173.43"/>
    </edge>
    <edge id=":1983517669_2" function="internal">
        <lane id=":1983517669_2_0" index="0" allow="pedestrian delivery bicycle" speed="3.65" length="1.44" shape="23123.34,6176.63 23123.85,6175.28"/>
    </edge>
    <edge id=":1983517669_9" function="internal">
        <lane id=":1983517669_9_0" index="0" allow="pedestrian delivery bicycle" speed="6.86" length="6.93" shape="23123.25,6173.43 23123.82,6171.67 23125.48,6170.08 23128.08,6169.09"/>
    </edge>
    <edge id=":1983517669_10" function="internal">
        <lane id=":1983517669_10_0" index="0" allow="pedestrian delivery bicycle" speed="3.65" length="3.23" shape="23123.85,6175.28 23124.54,6174.71 23125.41,6174.93 23126.46,6175.92"/>
    </edge>
    <edge id=":1983517669_3" function="internal">
        <lane id=":1983517669_3_0" index="0" allow="pedestrian delivery bicycle" speed="5.04" length="5.00" shape="23128.79,6172.21 23127.51,6172.70 23126.70,6173.48 23126.34,6174.55 23126.46,6175.92"/>
    </edge>
    <edge id=":1983517669_4" function="internal">
        <lane id=":1983517669_4_0" index="0" allow="pedestrian delivery bicycle" speed="6.88" length="10.14" shape="23128.79,6172.21 23126.02,6172.44 23123.83,6171.73 23122.23,6170.10 23121.21,6167.53"/>
    </edge>
    <edge id=":1983517669_5" function="internal">
        <lane id=":1983517669_5_0" index="0" allow="pedestrian delivery bicycle" speed="3.65" length="4.67" shape="23128.79,6172.21 23127.44,6171.69 23126.88,6171.00 23127.09,6170.13 23128.08,6169.09"/>
    </edge>
    <edge id=":1983517669_6" function="internal">
        <lane id=":1983517669_6_0" index="0" allow="pedestrian delivery bicycle" speed="5.07" length="5.02" shape="23124.32,6166.78 23124.82,6168.05 23125.62,6168.86 23126.70,6169.20 23128.08,6169.09"/>
    </edge>
    <edge id=":1983517669_7" function="internal">
        <lane id=":1983517669_7_0" index="0" allow="pedestrian delivery bicycle" speed="8.33" length="9.38" shape="23124.32,6166.78 23126.46,6175.92"/>
    </edge>
    <edge id=":1983517669_8" function="internal">
        <lane id=":1983517669_8_0" index="0" allow="pedestrian delivery bicycle" speed="3.65" length="1.44" shape="23124.32,6166.78 23123.82,6168.13"/>
    </edge>
    <edge id=":1983517669_11" function="internal">
        <lane id=":1983517669_11_0" index="0" allow="pedestrian delivery bicycle" speed="3.65" length="3.23" shape="23123.82,6168.13 23123.14,6168.71 23122.27,6168.51 23121.21,6167.53"/>
    </edge>
    <edge id=":1983517671_0" function="internal">
        <lane id=":1983517671_0_0" index="0" allow="pedestrian delivery bicycle" speed="8.33" length="9.38" shape="23130.44,6207.65 23128.36,6198.50"/>
    </edge>
    <edge id=":1983517671_1" function="internal">
        <lane id=":1983517671_1_0" index="0" allow="pedestrian delivery bicycle" speed="6.85" length="3.26" shape="23130.44,6207.65 23130.22,6204.86 23130.36,6204.42"/>
    </edge>
    <edge id=":1983517671_2" function="internal">
        <lane id=":1983517671_2_0" index="0" allow="pedestrian delivery bicycle" speed="3.65" length="1.44" shape="23130.44,6207.65 23130.96,6206.30"/>
    </edge>
    <edge id=":1983517671_9" function="internal">
        <lane id=":1983517671_9_0" index="0" allow="pedestrian delivery bicycle" speed="6.85" length="6.95" shape="23130.36,6204.42 23130.94,6202.67 23132.62,6201.09 23135.25,6200.12"/>
    </edge>
    <edge id=":1983517671_10" function="internal">
        <lane id=":1983517671_10_0" index="0" allow="pedestrian delivery bicycle" speed="3.65" length="3.23" shape="23130.96,6206.30 23131.65,6205.73 23132.52,6205.95 23133.56,6206.94"/>
    </edge>
    <edge id=":1983517671_3" function="internal">
        <lane id=":1983517671_3_0" index="0" allow="pedestrian delivery bicycle" speed="5.03" length="5.01" shape="23135.92,6203.25 23134.63,6203.73 23133.81,6204.50 23133.45,6205.57 23133.56,6206.94"/>
    </edge>
    <edge id=":1983517671_4" function="internal">
        <lane id=":1983517671_4_0" index="0" allow="pedestrian delivery bicycle" speed="6.89" length="10.15" shape="23135.92,6203.25 23133.14,6203.45 23130.95,6202.73 23129.35,6201.08 23128.36,6198.50"/>
    </edge>
    <edge id=":1983517671_5" function="internal">
        <lane id=":1983517671_5_0" index="0" allow="pedestrian delivery bicycle" speed="3.65" length="4.67" shape="23135.92,6203.25 23134.58,6202.72 23134.02,6202.02 23134.24,6201.15 23135.25,6200.12"/>
    </edge>
    <edge id=":1983517671_6" function="internal">
        <lane id=":1983517671_6_0" index="0" allow="pedestrian delivery bicycle" speed="5.08" length="5.04" shape="23131.48,6197.79 23131.97,6199.06 23132.76,6199.87 23133.86,6200.22 23135.25,6200.12"/>
    </edge>
    <edge id=":1983517671_7" function="internal">
        <lane id=":1983517671_7_0" index="0" allow="pedestrian delivery bicycle" speed="8.33" length="9.39" shape="23131.48,6197.79 23133.56,6206.94"/>
    </edge>
    <edge id=":1983517671_8" function="internal">
        <lane id=":1983517671_8_0" index="0" allow="pedestrian delivery bicycle" speed="3.65" length="1.44" shape="23131.48,6197.79 23130.96,6199.13"/>
    </edge>
    <edge id=":1983517671_11" function="internal">
        <lane id=":1983517671_11_0" index="0" allow="pedestrian delivery bicycle" speed="3.65" length="3.23" shape="23130.96,6199.13 23130.27,6199.70 23129.41,6199.49 23128.36,6198.50"/>
    </edge>
    <edge id=":1998974773_0" function="internal">